64927
  -OEChem-08172310442D

 64 63  0     1  0  0  0  0  0999 V2000
    4.8194    0.6305    0.0000 Cl  0  0  0  0  0  0  0  0  0  0  0  0
    1.4030    6.4685    0.0000 P   0  0  0  0  0  0  0  0  0  0  0  0
    9.0179   12.0710    0.0000 P   0  0  0  0  0  0  0  0  0  0  0  0
    2.2690    6.9685    0.0000 O   0  0  0  0  0  0  0  0  0  0  0  0
    0.5369    5.9685    0.0000 O   0  0  0  0  0  0  0  0  0  0  0  0
    0.9030    7.3345    0.0000 O   0  0  0  0  0  0  0  0  0  0  0  0
    9.8840   12.5710    0.0000 O   0  0  0  0  0  0  0  0  0  0  0  0
    8.1519   11.5710    0.0000 O   0  0  0  0  0  0  0  0  0  0  0  0
    8.5179   12.9370    0.0000 O   0  0  0  0  0  0  0  0  0  0  0  0
    1.9030    5.6025    0.0000 O   0  0  0  0  0  0  0  0  0  0  0  0
    9.5179   11.2050    0.0000 O   0  0  0  0  0  0  0  0  0  0  0  0
   10.9476    7.1546    0.0000 N   0  0  0  0  0  0  0  0  0  0  0  0
    8.3495    3.6546    0.0000 N   0  0  0  0  0  0  0  0  0  0  0  0
    8.3495    0.6546    0.0000 N   0  0  0  0  0  0  0  0  0  0  0  0
    9.2155    5.1546    0.0000 C   0  0  0  0  0  0  0  0  0  0  0  0
   10.0815    5.6546    0.0000 C   0  0  0  0  0  0  0  0  0  0  0  0
    9.2155    4.1546    0.0000 C   0  0  3  0  0  0  0  0  0  0  0  0
   10.0815    6.6546    0.0000 C   0  0  0  0  0  0  0  0  0  0  0  0
   10.0815    3.6546    0.0000 C   0  0  0  0  0  0  0  0  0  0  0  0
   10.9476    8.1546    0.0000 C   0  0  0  0  0  0  0  0  0  0  0  0
   11.8136    6.6546    0.0000 C   0  0  0  0  0  0  0  0  0  0  0  0
    8.3495    2.6546    0.0000 C   0  0  0  0  0  0  0  0  0  0  0  0
   11.8136    8.6546    0.0000 C   0  0  0  0  0  0  0  0  0  0  0  0
   12.6796    7.1546    0.0000 C   0  0  0  0  0  0  0  0  0  0  0  0
    7.4834    2.1546    0.0000 C   0  0  0  0  0  0  0  0  0  0  0  0
    9.2155    2.1546    0.0000 C   0  0  0  0  0  0  0  0  0  0  0  0
    7.4834    1.1546    0.0000 C   0  0  0  0  0  0  0  0  0  0  0  0
    6.5895    2.6893    0.0000 C   0  0  0  0  0  0  0  0  0  0  0  0
    9.2155    1.1546    0.0000 C   0  0  0  0  0  0  0  0  0  0  0  0
    6.5895    0.6200    0.0000 C   0  0  0  0  0  0  0  0  0  0  0  0
    5.6834    2.1754    0.0000 C   0  0  0  0  0  0  0  0  0  0  0  0
    5.6834    1.1338    0.0000 C   0  0  0  0  0  0  0  0  0  0  0  0
    9.0035    5.7372    0.0000 H   0  0  0  0  0  0  0  0  0  0  0  0
    8.6049    5.0470    0.0000 H   0  0  0  0  0  0  0  0  0  0  0  0
   10.2936    5.0720    0.0000 H   0  0  0  0  0  0  0  0  0  0  0  0
   10.6921    5.7623    0.0000 H   0  0  0  0  0  0  0  0  0  0  0  0
    8.6786    4.4646    0.0000 H   0  0  0  0  0  0  0  0  0  0  0  0
    9.8695    7.2372    0.0000 H   0  0  0  0  0  0  0  0  0  0  0  0
    9.4710    6.5470    0.0000 H   0  0  0  0  0  0  0  0  0  0  0  0
    7.8125    3.9646    0.0000 H   0  0  0  0  0  0  0  0  0  0  0  0
    9.7715    3.1177    0.0000 H   0  0  0  0  0  0  0  0  0  0  0  0
   10.6185    3.3446    0.0000 H   0  0  0  0  0  0  0  0  0  0  0  0
   10.3915    4.1916    0.0000 H   0  0  0  0  0  0  0  0  0  0  0  0
   10.7355    8.7372    0.0000 H   0  0  0  0  0  0  0  0  0  0  0  0
   10.3370    8.0470    0.0000 H   0  0  0  0  0  0  0  0  0  0  0  0
   11.4151    6.1797    0.0000 H   0  0  0  0  0  0  0  0  0  0  0  0
   12.2121    6.1797    0.0000 H   0  0  0  0  0  0  0  0  0  0  0  0
   12.1236    8.1177    0.0000 H   0  0  0  0  0  0  0  0  0  0  0  0
   12.3505    8.9646    0.0000 H   0  0  0  0  0  0  0  0  0  0  0  0
   11.5036    9.1916    0.0000 H   0  0  0  0  0  0  0  0  0  0  0  0
   12.9896    6.6177    0.0000 H   0  0  0  0  0  0  0  0  0  0  0  0
   13.2165    7.4646    0.0000 H   0  0  0  0  0  0  0  0  0  0  0  0
   12.3696    7.6916    0.0000 H   0  0  0  0  0  0  0  0  0  0  0  0
    9.7524    2.4646    0.0000 H   0  0  0  0  0  0  0  0  0  0  0  0
    6.5967    3.3092    0.0000 H   0  0  0  0  0  0  0  0  0  0  0  0
    9.7524    0.8446    0.0000 H   0  0  0  0  0  0  0  0  0  0  0  0
    6.5967    0.0000    0.0000 H   0  0  0  0  0  0  0  0  0  0  0  0
    5.1477    2.4875    0.0000 H   0  0  0  0  0  0  0  0  0  0  0  0
    2.8059    6.6585    0.0000 H   0  0  0  0  0  0  0  0  0  0  0  0
    0.0000    6.2785    0.0000 H   0  0  0  0  0  0  0  0  0  0  0  0
    1.2130    7.8715    0.0000 H   0  0  0  0  0  0  0  0  0  0  0  0
   10.4209   12.2610    0.0000 H   0  0  0  0  0  0  0  0  0  0  0  0
    7.6150   11.8810    0.0000 H   0  0  0  0  0  0  0  0  0  0  0  0
    8.8280   13.4740    0.0000 H   0  0  0  0  0  0  0  0  0  0  0  0
  1 32  1  0  0  0  0
  2  4  1  0  0  0  0
  2  5  1  0  0  0  0
  2  6  1  0  0  0  0
  2 10  2  0  0  0  0
  3  7  1  0  0  0  0
  3  8  1  0  0  0  0
  3  9  1  0  0  0  0
  3 11  2  0  0  0  0
  4 59  1  0  0  0  0
  5 60  1  0  0  0  0
  6 61  1  0  0  0  0
  7 62  1  0  0  0  0
  8 63  1  0  0  0  0
  9 64  1  0  0  0  0
 12 18  1  0  0  0  0
 12 20  1  0  0  0  0
 12 21  1  0  0  0  0
 13 17  1  0  0  0  0
 13 22  1  0  0  0  0
 13 40  1  0  0  0  0
 14 27  2  0  0  0  0
 14 29  1  0  0  0  0
 15 16  1  0  0  0  0
 15 17  1  0  0  0  0
 15 33  1  0  0  0  0
 15 34  1  0  0  0  0
 16 18  1  0  0  0  0
 16 35  1  0  0  0  0
 16 36  1  0  0  0  0
 17 19  1  0  0  0  0
 17 37  1  0  0  0  0
 18 38  1  0  0  0  0
 18 39  1  0  0  0  0
 19 41  1  0  0  0  0
 19 42  1  0  0  0  0
 19 43  1  0  0  0  0
 20 23  1  0  0  0  0
 20 44  1  0  0  0  0
 20 45  1  0  0  0  0
 21 24  1  0  0  0  0
 21 46  1  0  0  0  0
 21 47  1  0  0  0  0
 22 25  2  0  0  0  0
 22 26  1  0  0  0  0
 23 48  1  0  0  0  0
 23 49  1  0  0  0  0
 23 50  1  0  0  0  0
 24 51  1  0  0  0  0
 24 52  1  0  0  0  0
 24 53  1  0  0  0  0
 25 27  1  0  0  0  0
 25 28  1  0  0  0  0
 26 29  2  0  0  0  0
 26 54  1  0  0  0  0
 27 30  1  0  0  0  0
 28 31  2  0  0  0  0
 28 55  1  0  0  0  0
 29 56  1  0  0  0  0
 30 32  2  0  0  0  0
 30 57  1  0  0  0  0
 31 32  1  0  0  0  0
 31 58  1  0  0  0  0
M  END
> <PUBCHEM_COMPOUND_CID>
64927

> <PUBCHEM_COMPOUND_CANONICALIZED>
1

> <PUBCHEM_CACTVS_COMPLEXITY>
359

> <PUBCHEM_CACTVS_HBOND_ACCEPTOR>
11

> <PUBCHEM_CACTVS_HBOND_DONOR>
7

> <PUBCHEM_CACTVS_ROTATABLE_BOND>
8

> <PUBCHEM_CACTVS_SUBSKEYS>
AAADcfB7PAMEAAAAAAAAAAAAAAAAAAAAAAA8QAAAAAAAAACx8AAAHAIQCCAADCrBHiQ+wPPIEBCgQzRnRICCgCAxByAI2KA4ZpgIIOLB09GEJAhgkADIyAcQgIAOBAAAAAICAAAIAAAABAQAAAAAAAAAAA==

> <PUBCHEM_IUPAC_OPENEYE_NAME>
N4-(7-chloro-4-quinolyl)-N1,N1-diethyl-pentane-1,4-diamine;phosphoric acid

> <PUBCHEM_IUPAC_CAS_NAME>
N4-(7-chloro-4-quinolinyl)-N1,N1-diethylpentane-1,4-diamine;phosphoric acid

> <PUBCHEM_IUPAC_NAME_MARKUP>
4-<I>N</I>-(7-chloroquinolin-4-yl)-1-<I>N</I>,1-<I>N</I>-diethylpentane-1,4-diamine;phosphoric acid

> <PUBCHEM_IUPAC_NAME>
4-N-(7-chloroquinolin-4-yl)-1-N,1-N-diethylpentane-1,4-diamine;phosphoric acid

> <PUBCHEM_IUPAC_SYSTEMATIC_NAME>
N4-(7-chloranylquinolin-4-yl)-N1,N1-diethyl-pentane-1,4-diamine;phosphoric acid

> <PUBCHEM_IUPAC_TRADITIONAL_NAME>
4-[(7-chloro-4-quinolyl)amino]pentyl-diethyl-amine;phosphoric acid

> <PUBCHEM_IUPAC_INCHI>
InChI=1S/C18H26ClN3.2H3O4P/c1-4-22(5-2)12-6-7-14(3)21-17-10-11-20-18-13-15(19)8-9-16(17)18;2*1-5(2,3)4/h8-11,13-14H,4-7,12H2,1-3H3,(H,20,21);2*(H3,1,2,3,4)

> <PUBCHEM_IUPAC_INCHIKEY>
QKICWELGRMTQCR-UHFFFAOYSA-N

> <PUBCHEM_EXACT_MASS>
515.1353167

> <PUBCHEM_MOLECULAR_FORMULA>
C18H32ClN3O8P2

> <PUBCHEM_MOLECULAR_WEIGHT>
515.9

> <PUBCHEM_OPENEYE_CAN_SMILES>
CCN(CC)CCCC(C)NC1=C2C=CC(=CC2=NC=C1)Cl.OP(=O)(O)O.OP(=O)(O)O

> <PUBCHEM_OPENEYE_ISO_SMILES>
CCN(CC)CCCC(C)NC1=C2C=CC(=CC2=NC=C1)Cl.OP(=O)(O)O.OP(=O)(O)O

> <PUBCHEM_CACTVS_TPSA>
184

> <PUBCHEM_MONOISOTOPIC_WEIGHT>
515.1353167

> <PUBCHEM_TOTAL_CHARGE>
0

> <PUBCHEM_HEAVY_ATOM_COUNT>
32

> <PUBCHEM_ATOM_DEF_STEREO_COUNT>
0

> <PUBCHEM_ATOM_UDEF_STEREO_COUNT>
1

> <PUBCHEM_BOND_DEF_STEREO_COUNT>
0

> <PUBCHEM_BOND_UDEF_STEREO_COUNT>
0

> <PUBCHEM_ISOTOPIC_ATOM_COUNT>
0

> <PUBCHEM_COMPONENT_COUNT>
3

> <PUBCHEM_CACTVS_TAUTO_COUNT>
-1

> <PUBCHEM_COORDINATE_TYPE>
1
5
255

> <PUBCHEM_BONDANNOTATIONS>
14  27  8
14  29  8
17  19  3
22  25  8
22  26  8
25  27  8
25  28  8
26  29  8
27  30  8
28  31  8
30  32  8
31  32  8

$$$$
264001
  -OEChem-08172310442D

 44 44  0     0  0  0  0  0  0999 V2000
    3.6016    0.8660    0.0000 P   0  0  0  0  0  0  0  0  0  0  0  0
    4.4677    1.3660    0.0000 O   0  0  0  0  0  0  0  0  0  0  0  0
    2.7356    0.3660    0.0000 O   0  0  0  0  0  0  0  0  0  0  0  0
    3.1016    1.7320    0.0000 O   0  0  0  0  0  0  0  0  0  0  0  0
    4.1016    0.0000    0.0000 O   0  0  0  0  0  0  0  0  0  0  0  0
    3.1350    5.9071    0.0000 N   0  0  0  0  0  0  0  0  0  0  0  0
    3.1350    7.9071    0.0000 N   0  0  0  0  0  0  0  0  0  0  0  0
    4.8950    7.9418    0.0000 N   0  0  0  0  0  0  0  0  0  0  0  0
    5.8010    6.3863    0.0000 N   0  0  0  0  0  0  0  0  0  0  0  0
    4.8834    4.8725    0.0000 N   0  0  0  0  0  0  0  0  0  0  0  0
    6.6651    7.9312    0.0000 N   0  0  0  0  0  0  0  0  0  0  0  0
    1.4030    5.9071    0.0000 C   0  0  0  0  0  0  0  0  0  0  0  0
    1.4030    7.9071    0.0000 C   0  0  0  0  0  0  0  0  0  0  0  0
    2.2690    6.4071    0.0000 C   0  0  0  0  0  0  0  0  0  0  0  0
    2.2690    7.4071    0.0000 C   0  0  0  0  0  0  0  0  0  0  0  0
    1.4030    4.9071    0.0000 C   0  0  0  0  0  0  0  0  0  0  0  0
    0.5369    6.4071    0.0000 C   0  0  0  0  0  0  0  0  0  0  0  0
    1.4030    8.9071    0.0000 C   0  0  0  0  0  0  0  0  0  0  0  0
    0.5369    7.4071    0.0000 C   0  0  0  0  0  0  0  0  0  0  0  0
    4.0010    6.4071    0.0000 C   0  0  0  0  0  0  0  0  0  0  0  0
    4.0010    7.4071    0.0000 C   0  0  0  0  0  0  0  0  0  0  0  0
    4.8950    5.8724    0.0000 C   0  0  0  0  0  0  0  0  0  0  0  0
    5.8010    7.4279    0.0000 C   0  0  0  0  0  0  0  0  0  0  0  0
    0.8660    5.5971    0.0000 H   0  0  0  0  0  0  0  0  0  0  0  0
    0.8660    8.2171    0.0000 H   0  0  0  0  0  0  0  0  0  0  0  0
    0.7830    4.9071    0.0000 H   0  0  0  0  0  0  0  0  0  0  0  0
    1.4030    4.2871    0.0000 H   0  0  0  0  0  0  0  0  0  0  0  0
    2.0230    4.9071    0.0000 H   0  0  0  0  0  0  0  0  0  0  0  0
    0.8469    6.9440    0.0000 H   0  0  0  0  0  0  0  0  0  0  0  0
    0.0000    6.7171    0.0000 H   0  0  0  0  0  0  0  0  0  0  0  0
    0.2269    5.8702    0.0000 H   0  0  0  0  0  0  0  0  0  0  0  0
    2.0230    8.9071    0.0000 H   0  0  0  0  0  0  0  0  0  0  0  0
    1.4030    9.5271    0.0000 H   0  0  0  0  0  0  0  0  0  0  0  0
    0.7830    8.9071    0.0000 H   0  0  0  0  0  0  0  0  0  0  0  0
    0.2269    7.9440    0.0000 H   0  0  0  0  0  0  0  0  0  0  0  0
    0.0000    7.0971    0.0000 H   0  0  0  0  0  0  0  0  0  0  0  0
    0.8469    6.8702    0.0000 H   0  0  0  0  0  0  0  0  0  0  0  0
    5.4167    4.5563    0.0000 H   0  0  0  0  0  0  0  0  0  0  0  0
    4.3429    4.5687    0.0000 H   0  0  0  0  0  0  0  0  0  0  0  0
    7.2033    7.6233    0.0000 H   0  0  0  0  0  0  0  0  0  0  0  0
    6.6628    8.5512    0.0000 H   0  0  0  0  0  0  0  0  0  0  0  0
    5.0046    1.0560    0.0000 H   0  0  0  0  0  0  0  0  0  0  0  0
    2.1987    0.6760    0.0000 H   0  0  0  0  0  0  0  0  0  0  0  0
    3.4116    2.2690    0.0000 H   0  0  0  0  0  0  0  0  0  0  0  0
  1  2  1  0  0  0  0
  1  3  1  0  0  0  0
  1  4  1  0  0  0  0
  1  5  2  0  0  0  0
  2 42  1  0  0  0  0
  3 43  1  0  0  0  0
  4 44  1  0  0  0  0
  6 14  2  0  0  0  0
  6 20  1  0  0  0  0
  7 15  2  0  0  0  0
  7 21  1  0  0  0  0
  8 21  2  0  0  0  0
  8 23  1  0  0  0  0
  9 22  1  0  0  0  0
  9 23  2  0  0  0  0
 10 22  1  0  0  0  0
 10 38  1  0  0  0  0
 10 39  1  0  0  0  0
 11 23  1  0  0  0  0
 11 40  1  0  0  0  0
 11 41  1  0  0  0  0
 12 14  1  0  0  0  0
 12 16  1  0  0  0  0
 12 17  1  0  0  0  0
 12 24  1  0  0  0  0
 13 15  1  0  0  0  0
 13 18  1  0  0  0  0
 13 19  1  0  0  0  0
 13 25  1  0  0  0  0
 14 15  1  0  0  0  0
 16 26  1  0  0  0  0
 16 27  1  0  0  0  0
 16 28  1  0  0  0  0
 17 29  1  0  0  0  0
 17 30  1  0  0  0  0
 17 31  1  0  0  0  0
 18 32  1  0  0  0  0
 18 33  1  0  0  0  0
 18 34  1  0  0  0  0
 19 35  1  0  0  0  0
 19 36  1  0  0  0  0
 19 37  1  0  0  0  0
 20 21  1  0  0  0  0
 20 22  2  0  0  0  0
M  END
> <PUBCHEM_COMPOUND_CID>
264001

> <PUBCHEM_COMPOUND_CANONICALIZED>
1

> <PUBCHEM_CACTVS_COMPLEXITY>
332

> <PUBCHEM_CACTVS_HBOND_ACCEPTOR>
10

> <PUBCHEM_CACTVS_HBOND_DONOR>
5

> <PUBCHEM_CACTVS_ROTATABLE_BOND>
2

> <PUBCHEM_CACTVS_SUBSKEYS>
AAADceBzuAIAAAAAAAAAAAAAAAAAAAAAAAAsWAAAAAAAAACx+AAAHAAQCCAADQiBFwAD8L5IEBCgQQZgZICAgC0hEKABGCAwVBiAaEJAyEAUBAgoAALISCMAAAAMAAAAAAAAAAAAAAAAAAAAAAAAAAAAAA==

> <PUBCHEM_IUPAC_OPENEYE_NAME>
6,7-diisopropylpteridine-2,4-diamine;phosphoric acid

> <PUBCHEM_IUPAC_CAS_NAME>
6,7-di(propan-2-yl)pteridine-2,4-diamine;phosphoric acid

> <PUBCHEM_IUPAC_NAME_MARKUP>
6,7-di(propan-2-yl)pteridine-2,4-diamine;phosphoric acid

> <PUBCHEM_IUPAC_NAME>
6,7-di(propan-2-yl)pteridine-2,4-diamine;phosphoric acid

> <PUBCHEM_IUPAC_SYSTEMATIC_NAME>
6,7-di(propan-2-yl)pteridine-2,4-diamine;phosphoric acid

> <PUBCHEM_IUPAC_TRADITIONAL_NAME>
(2-amino-6,7-diisopropyl-pteridin-4-yl)amine;phosphoric acid

> <PUBCHEM_IUPAC_INCHI>
InChI=1S/C12H18N6.H3O4P/c1-5(2)7-8(6(3)4)16-11-9(15-7)10(13)17-12(14)18-11;1-5(2,3)4/h5-6H,1-4H3,(H4,13,14,16,17,18);(H3,1,2,3,4)

> <PUBCHEM_IUPAC_INCHIKEY>
YNQBQYASRYRNRY-UHFFFAOYSA-N

> <PUBCHEM_EXACT_MASS>
344.13619017

> <PUBCHEM_MOLECULAR_FORMULA>
C12H21N6O4P

> <PUBCHEM_MOLECULAR_WEIGHT>
344.31

> <PUBCHEM_OPENEYE_CAN_SMILES>
CC(C)C1=NC2=C(N=C(N=C2N=C1C(C)C)N)N.OP(=O)(O)O

> <PUBCHEM_OPENEYE_ISO_SMILES>
CC(C)C1=NC2=C(N=C(N=C2N=C1C(C)C)N)N.OP(=O)(O)O

> <PUBCHEM_CACTVS_TPSA>
181

> <PUBCHEM_MONOISOTOPIC_WEIGHT>
344.13619017

> <PUBCHEM_TOTAL_CHARGE>
0

> <PUBCHEM_HEAVY_ATOM_COUNT>
23

> <PUBCHEM_ATOM_DEF_STEREO_COUNT>
0

> <PUBCHEM_ATOM_UDEF_STEREO_COUNT>
0

> <PUBCHEM_BOND_DEF_STEREO_COUNT>
0

> <PUBCHEM_BOND_UDEF_STEREO_COUNT>
0

> <PUBCHEM_ISOTOPIC_ATOM_COUNT>
0

> <PUBCHEM_COMPONENT_COUNT>
2

> <PUBCHEM_CACTVS_TAUTO_COUNT>
123

> <PUBCHEM_COORDINATE_TYPE>
1
5
255

> <PUBCHEM_BONDANNOTATIONS>
14  15  8
20  21  8
20  22  8
6  14  8
6  20  8
7  15  8
7  21  8
8  21  8
8  23  8
9  22  8
9  23  8

$$$$
44226912
  -OEChem-08172310442D

 52 56  0     0  0  0  0  0  0999 V2000
    6.3821    0.0621    0.0000 O   0  0  0  0  0  0  0  0  0  0  0  0
    8.1263    3.1313    0.0000 N   0  0  0  0  0  0  0  0  0  0  0  0
    8.1142   -0.9379    0.0000 N   0  0  0  0  0  0  0  0  0  0  0  0
    4.5961   -2.9830    0.0000 N   0  0  0  0  0  0  0  0  0  0  0  0
    2.0038   -1.4730    0.0000 N   0  0  0  0  0  0  0  0  0  0  0  0
    8.1301    2.1313    0.0000 C   0  0  0  0  0  0  0  0  0  0  0  0
    7.2481   -1.4379    0.0000 C   0  0  0  0  0  0  0  0  0  0  0  0
    7.2642   -2.4794    0.0000 C   0  0  0  0  0  0  0  0  0  0  0  0
    7.2481    0.5621    0.0000 C   0  0  0  0  0  0  0  0  0  0  0  0
    6.3821   -0.9379    0.0000 C   0  0  0  0  0  0  0  0  0  0  0  0
    8.1142    0.0621    0.0000 C   0  0  0  0  0  0  0  0  0  0  0  0
    6.3662   -3.0072    0.0000 C   0  0  0  0  0  0  0  0  0  0  0  0
    7.2321    1.6036    0.0000 C   0  0  0  0  0  0  0  0  0  0  0  0
    8.9904    3.6347    0.0000 C   0  0  0  0  0  0  0  0  0  0  0  0
    7.2583    3.6280    0.0000 C   0  0  0  0  0  0  0  0  0  0  0  0
    9.0322    1.6105    0.0000 C   0  0  0  0  0  0  0  0  0  0  0  0
    5.4641   -2.4864    0.0000 C   0  0  0  0  0  0  0  0  0  0  0  0
    5.4721   -1.4448    0.0000 C   0  0  0  0  0  0  0  0  0  0  0  0
    9.0242    0.5689    0.0000 C   0  0  0  0  0  0  0  0  0  0  0  0
    8.2161   -3.0001    0.0000 C   0  0  0  0  0  0  0  0  0  0  0  0
    6.3578   -4.0922    0.0000 C   0  0  0  0  0  0  0  0  0  0  0  0
    8.9865    4.6346    0.0000 C   0  0  0  0  0  0  0  0  0  0  0  0
    7.2545    4.6280    0.0000 C   0  0  0  0  0  0  0  0  0  0  0  0
    8.2328   -4.0849    0.0000 C   0  0  0  0  0  0  0  0  0  0  0  0
    7.2974   -4.6346    0.0000 C   0  0  0  0  0  0  0  0  0  0  0  0
    3.7320   -2.4797    0.0000 C   0  0  0  0  0  0  0  0  0  0  0  0
    2.8641   -2.9764    0.0000 C   0  0  0  0  0  0  0  0  0  0  0  0
    3.7359   -1.4797    0.0000 C   0  0  0  0  0  0  0  0  0  0  0  0
    2.0000   -2.4730    0.0000 C   0  0  0  0  0  0  0  0  0  0  0  0
    2.8718   -0.9764    0.0000 C   0  0  0  0  0  0  0  0  0  0  0  0
    6.6916    1.9074    0.0000 H   0  0  0  0  0  0  0  0  0  0  0  0
    9.2046    3.0529    0.0000 H   0  0  0  0  0  0  0  0  0  0  0  0
    9.6005    3.7447    0.0000 H   0  0  0  0  0  0  0  0  0  0  0  0
    6.6473    3.7333    0.0000 H   0  0  0  0  0  0  0  0  0  0  0  0
    7.0485    3.0446    0.0000 H   0  0  0  0  0  0  0  0  0  0  0  0
    9.5703    1.9184    0.0000 H   0  0  0  0  0  0  0  0  0  0  0  0
    4.9388   -1.1286    0.0000 H   0  0  0  0  0  0  0  0  0  0  0  0
    9.5575    0.2527    0.0000 H   0  0  0  0  0  0  0  0  0  0  0  0
    8.7470   -2.6798    0.0000 H   0  0  0  0  0  0  0  0  0  0  0  0
    5.8197   -4.4001    0.0000 H   0  0  0  0  0  0  0  0  0  0  0  0
    9.6065    4.6370    0.0000 H   0  0  0  0  0  0  0  0  0  0  0  0
    8.9841    5.2546    0.0000 H   0  0  0  0  0  0  0  0  0  0  0  0
    8.3665    4.6323    0.0000 H   0  0  0  0  0  0  0  0  0  0  0  0
    7.8744    4.6304    0.0000 H   0  0  0  0  0  0  0  0  0  0  0  0
    7.2521    5.2480    0.0000 H   0  0  0  0  0  0  0  0  0  0  0  0
    6.6345    4.6256    0.0000 H   0  0  0  0  0  0  0  0  0  0  0  0
    8.7733   -4.3887    0.0000 H   0  0  0  0  0  0  0  0  0  0  0  0
    7.2998   -5.2546    0.0000 H   0  0  0  0  0  0  0  0  0  0  0  0
    2.8617   -3.5964    0.0000 H   0  0  0  0  0  0  0  0  0  0  0  0
    4.2740   -1.1718    0.0000 H   0  0  0  0  0  0  0  0  0  0  0  0
    1.4619   -2.7809    0.0000 H   0  0  0  0  0  0  0  0  0  0  0  0
    2.8742   -0.3564    0.0000 H   0  0  0  0  0  0  0  0  0  0  0  0
  1  9  1  0  0  0  0
  1 10  1  0  0  0  0
  2  6  1  0  0  0  0
  2 14  1  0  0  0  0
  2 15  1  0  0  0  0
  3  7  2  0  0  0  0
  3 11  1  0  0  0  0
  4 17  2  0  0  0  0
  4 26  1  0  0  0  0
  5 29  2  0  0  0  0
  5 30  1  0  0  0  0
  6 13  2  0  0  0  0
  6 16  1  0  0  0  0
  7  8  1  0  0  0  0
  7 10  1  0  0  0  0
  8 12  1  0  0  0  0
  8 20  2  0  0  0  0
  9 11  2  0  0  0  0
  9 13  1  0  0  0  0
 10 18  2  0  0  0  0
 11 19  1  0  0  0  0
 12 17  1  0  0  0  0
 12 21  2  0  0  0  0
 13 31  1  0  0  0  0
 14 22  1  0  0  0  0
 14 32  1  0  0  0  0
 14 33  1  0  0  0  0
 15 23  1  0  0  0  0
 15 34  1  0  0  0  0
 15 35  1  0  0  0  0
 16 19  2  0  0  0  0
 16 36  1  0  0  0  0
 17 18  1  0  0  0  0
 18 37  1  0  0  0  0
 19 38  1  0  0  0  0
 20 24  1  0  0  0  0
 20 39  1  0  0  0  0
 21 25  1  0  0  0  0
 21 40  1  0  0  0  0
 22 41  1  0  0  0  0
 22 42  1  0  0  0  0
 22 43  1  0  0  0  0
 23 44  1  0  0  0  0
 23 45  1  0  0  0  0
 23 46  1  0  0  0  0
 24 25  2  0  0  0  0
 24 47  1  0  0  0  0
 25 48  1  0  0  0  0
 26 27  2  0  0  0  0
 26 28  1  0  0  0  0
 27 29  1  0  0  0  0
 27 49  1  0  0  0  0
 28 30  2  0  0  0  0
 28 50  1  0  0  0  0
 29 51  1  0  0  0  0
 30 52  1  0  0  0  0
M  END
> <PUBCHEM_COMPOUND_CID>
44226912

> <PUBCHEM_COMPOUND_CANONICALIZED>
1

> <PUBCHEM_CACTVS_COMPLEXITY>
704

> <PUBCHEM_CACTVS_HBOND_ACCEPTOR>
5

> <PUBCHEM_CACTVS_HBOND_DONOR>
0

> <PUBCHEM_CACTVS_ROTATABLE_BOND>
4

> <PUBCHEM_CACTVS_SUBSKEYS>
AAADceB7oAAAAAAAAAAAAAAAAAAAAAAAAAA8YIECAAAAAACB0AAAHgAAAAAADAzBmgQ+xpMIFACgAzRnRASCiCAxIiAI2CA/bJgOJuLE8duHPCjmwBnI6AeQ0KMOgACAAgAQEAAAAQAEACAgAAAAAAAAAA==

> <PUBCHEM_IUPAC_OPENEYE_NAME>
N,N-diethyl-5-(4-pyridylimino)benzo[a]phenoxazin-9-amine

> <PUBCHEM_IUPAC_CAS_NAME>
N,N-diethyl-5-pyridin-4-ylimino-9-benzo[a]phenoxazinamine

> <PUBCHEM_IUPAC_NAME_MARKUP>
<I>N</I>,<I>N</I>-diethyl-5-pyridin-4-yliminobenzo[a]phenoxazin-9-amine

> <PUBCHEM_IUPAC_NAME>
N,N-diethyl-5-pyridin-4-yliminobenzo[a]phenoxazin-9-amine

> <PUBCHEM_IUPAC_SYSTEMATIC_NAME>
N,N-diethyl-5-pyridin-4-ylimino-benzo[a]phenoxazin-9-amine

> <PUBCHEM_IUPAC_TRADITIONAL_NAME>
diethyl-[5-(4-pyridylimino)benzo[a]phenoxazin-9-yl]amine

> <PUBCHEM_IUPAC_INCHI>
InChI=1S/C25H22N4O/c1-3-29(4-2)18-9-10-21-23(15-18)30-24-16-22(27-17-11-13-26-14-12-17)19-7-5-6-8-20(19)25(24)28-21/h5-16H,3-4H2,1-2H3

> <PUBCHEM_IUPAC_INCHIKEY>
HBSWMATYASLRBW-UHFFFAOYSA-N

> <PUBCHEM_XLOGP3_AA>
4.5

> <PUBCHEM_EXACT_MASS>
394.17936134

> <PUBCHEM_MOLECULAR_FORMULA>
C25H22N4O

> <PUBCHEM_MOLECULAR_WEIGHT>
394.5

> <PUBCHEM_OPENEYE_CAN_SMILES>
CCN(CC)C1=CC2=C(C=C1)N=C3C4=CC=CC=C4C(=NC5=CC=NC=C5)C=C3O2

> <PUBCHEM_OPENEYE_ISO_SMILES>
CCN(CC)C1=CC2=C(C=C1)N=C3C4=CC=CC=C4C(=NC5=CC=NC=C5)C=C3O2

> <PUBCHEM_CACTVS_TPSA>
50.1

> <PUBCHEM_MONOISOTOPIC_WEIGHT>
394.17936134

> <PUBCHEM_TOTAL_CHARGE>
0

> <PUBCHEM_HEAVY_ATOM_COUNT>
30

> <PUBCHEM_ATOM_DEF_STEREO_COUNT>
0

> <PUBCHEM_ATOM_UDEF_STEREO_COUNT>
0

> <PUBCHEM_BOND_DEF_STEREO_COUNT>
0

> <PUBCHEM_BOND_UDEF_STEREO_COUNT>
0

> <PUBCHEM_ISOTOPIC_ATOM_COUNT>
0

> <PUBCHEM_COMPONENT_COUNT>
1

> <PUBCHEM_CACTVS_TAUTO_COUNT>
1

> <PUBCHEM_COORDINATE_TYPE>
1
5
255

> <PUBCHEM_BONDANNOTATIONS>
1  10  8
1  9  8
10  18  8
11  19  8
12  17  8
12  21  8
16  19  8
17  18  8
20  24  8
21  25  8
24  25  8
26  27  8
26  28  8
27  29  8
28  30  8
3  11  8
3  7  8
5  29  8
5  30  8
6  13  8
6  16  8
7  8  8
8  12  8
8  20  8
9  11  8
9  13  8

$$$$
1285085
  -OEChem-08172310442D

 40 43  0     0  0  0  0  0  0999 V2000
    8.1301    4.5194    0.0000 Cl  0  0  0  0  0  0  0  0  0  0  0  0
    4.7230   -3.5684    0.0000 O   0  0  0  0  0  0  0  0  0  0  0  0
    4.6660   -1.4806    0.0000 N   0  0  0  0  0  0  0  0  0  0  0  0
    5.5321    0.0194    0.0000 N   0  0  0  0  0  0  0  0  0  0  0  0
    4.6660    1.5194    0.0000 N   0  0  0  0  0  0  0  0  0  0  0  0
    6.3981    1.5194    0.0000 N   0  0  0  0  0  0  0  0  0  0  0  0
    3.8000    0.0194    0.0000 C   0  0  0  0  0  0  0  0  0  0  0  0
    4.6660   -0.4806    0.0000 C   0  0  0  0  0  0  0  0  0  0  0  0
    3.8000    1.0194    0.0000 C   0  0  0  0  0  0  0  0  0  0  0  0
    5.5321   -1.9806    0.0000 C   0  0  0  0  0  0  0  0  0  0  0  0
    5.5321    1.0194    0.0000 C   0  0  0  0  0  0  0  0  0  0  0  0
    2.9061   -0.5152    0.0000 C   0  0  0  0  0  0  0  0  0  0  0  0
    5.5321   -2.9806    0.0000 C   0  0  0  0  0  0  0  0  0  0  0  0
    2.9061    1.5541    0.0000 C   0  0  0  0  0  0  0  0  0  0  0  0
    2.0000   -0.0014    0.0000 C   0  0  0  0  0  0  0  0  0  0  0  0
    2.0000    1.0402    0.0000 C   0  0  0  0  0  0  0  0  0  0  0  0
    6.3981    2.5194    0.0000 C   0  0  0  0  0  0  0  0  0  0  0  0
    6.3411   -3.5684    0.0000 C   0  0  0  0  0  0  0  0  0  0  0  0
    7.2641    3.0194    0.0000 C   0  0  0  0  0  0  0  0  0  0  0  0
    5.5321    3.0194    0.0000 C   0  0  0  0  0  0  0  0  0  0  0  0
    6.0321   -4.5194    0.0000 C   0  0  0  0  0  0  0  0  0  0  0  0
    5.0321   -4.5194    0.0000 C   0  0  0  0  0  0  0  0  0  0  0  0
    7.2641    4.0194    0.0000 C   0  0  0  0  0  0  0  0  0  0  0  0
    5.5321    4.0194    0.0000 C   0  0  0  0  0  0  0  0  0  0  0  0
    6.3981    4.5194    0.0000 C   0  0  0  0  0  0  0  0  0  0  0  0
    6.1426   -2.0882    0.0000 H   0  0  0  0  0  0  0  0  0  0  0  0
    5.7441   -1.3980    0.0000 H   0  0  0  0  0  0  0  0  0  0  0  0
    4.1291   -1.7906    0.0000 H   0  0  0  0  0  0  0  0  0  0  0  0
    2.9132   -1.1352    0.0000 H   0  0  0  0  0  0  0  0  0  0  0  0
    2.9132    2.1740    0.0000 H   0  0  0  0  0  0  0  0  0  0  0  0
    6.9350    1.2094    0.0000 H   0  0  0  0  0  0  0  0  0  0  0  0
    1.4643   -0.3135    0.0000 H   0  0  0  0  0  0  0  0  0  0  0  0
    1.4643    1.3523    0.0000 H   0  0  0  0  0  0  0  0  0  0  0  0
    6.9307   -3.3768    0.0000 H   0  0  0  0  0  0  0  0  0  0  0  0
    7.8010    2.7094    0.0000 H   0  0  0  0  0  0  0  0  0  0  0  0
    4.9951    2.7094    0.0000 H   0  0  0  0  0  0  0  0  0  0  0  0
    6.3965   -5.0210    0.0000 H   0  0  0  0  0  0  0  0  0  0  0  0
    4.6676   -5.0210    0.0000 H   0  0  0  0  0  0  0  0  0  0  0  0
    4.9951    4.3294    0.0000 H   0  0  0  0  0  0  0  0  0  0  0  0
    6.3981    5.1394    0.0000 H   0  0  0  0  0  0  0  0  0  0  0  0
  1 23  1  0  0  0  0
  2 13  1  0  0  0  0
  2 22  1  0  0  0  0
  3  8  1  0  0  0  0
  3 10  1  0  0  0  0
  3 28  1  0  0  0  0
  4  8  2  0  0  0  0
  4 11  1  0  0  0  0
  5  9  1  0  0  0  0
  5 11  2  0  0  0  0
  6 11  1  0  0  0  0
  6 17  1  0  0  0  0
  6 31  1  0  0  0  0
  7  8  1  0  0  0  0
  7  9  1  0  0  0  0
  7 12  2  0  0  0  0
  9 14  2  0  0  0  0
 10 13  1  0  0  0  0
 10 26  1  0  0  0  0
 10 27  1  0  0  0  0
 12 15  1  0  0  0  0
 12 29  1  0  0  0  0
 13 18  2  0  0  0  0
 14 16  1  0  0  0  0
 14 30  1  0  0  0  0
 15 16  2  0  0  0  0
 15 32  1  0  0  0  0
 16 33  1  0  0  0  0
 17 19  2  0  0  0  0
 17 20  1  0  0  0  0
 18 21  1  0  0  0  0
 18 34  1  0  0  0  0
 19 23  1  0  0  0  0
 19 35  1  0  0  0  0
 20 24  2  0  0  0  0
 20 36  1  0  0  0  0
 21 22  2  0  0  0  0
 21 37  1  0  0  0  0
 22 38  1  0  0  0  0
 23 25  2  0  0  0  0
 24 25  1  0  0  0  0
 24 39  1  0  0  0  0
 25 40  1  0  0  0  0
M  END
> <PUBCHEM_COMPOUND_CID>
1285085

> <PUBCHEM_COMPOUND_CANONICALIZED>
1

> <PUBCHEM_CACTVS_COMPLEXITY>
426

> <PUBCHEM_CACTVS_HBOND_ACCEPTOR>
5

> <PUBCHEM_CACTVS_HBOND_DONOR>
2

> <PUBCHEM_CACTVS_ROTATABLE_BOND>
5

> <PUBCHEM_CACTVS_SUBSKEYS>
AAADccB7oAAEAAAAAAAAAAAAAAAAASAAAAA8YIAAAAAAAACx/AAAHgIQAAAADA7hniYx9PbIFECoA65y5ACCiCklJ6AJmKG+btiOLrLF//uHPSjs0BPY6aeYkQIOAAAAAAICAAAAAAAABAQAAAAAAAAAAA==

> <PUBCHEM_IUPAC_OPENEYE_NAME>
N2-(3-chlorophenyl)-N4-(2-furylmethyl)quinazoline-2,4-diamine

> <PUBCHEM_IUPAC_CAS_NAME>
N2-(3-chlorophenyl)-N4-(2-furanylmethyl)quinazoline-2,4-diamine

> <PUBCHEM_IUPAC_NAME_MARKUP>
2-<I>N</I>-(3-chlorophenyl)-4-<I>N</I>-(furan-2-ylmethyl)quinazoline-2,4-diamine

> <PUBCHEM_IUPAC_NAME>
2-N-(3-chlorophenyl)-4-N-(furan-2-ylmethyl)quinazoline-2,4-diamine

> <PUBCHEM_IUPAC_SYSTEMATIC_NAME>
N2-(3-chlorophenyl)-N4-(furan-2-ylmethyl)quinazoline-2,4-diamine

> <PUBCHEM_IUPAC_TRADITIONAL_NAME>
[2-(3-chloroanilino)quinazolin-4-yl]-(2-furfuryl)amine

> <PUBCHEM_IUPAC_INCHI>
InChI=1S/C19H15ClN4O/c20-13-5-3-6-14(11-13)22-19-23-17-9-2-1-8-16(17)18(24-19)21-12-15-7-4-10-25-15/h1-11H,12H2,(H2,21,22,23,24)

> <PUBCHEM_IUPAC_INCHIKEY>
KLRNKMZSARWWTH-UHFFFAOYSA-N

> <PUBCHEM_XLOGP3_AA>
5

> <PUBCHEM_EXACT_MASS>
350.0934388

> <PUBCHEM_MOLECULAR_FORMULA>
C19H15ClN4O

> <PUBCHEM_MOLECULAR_WEIGHT>
350.8

> <PUBCHEM_OPENEYE_CAN_SMILES>
C1=CC=C2C(=C1)C(=NC(=N2)NC3=CC(=CC=C3)Cl)NCC4=CC=CO4

> <PUBCHEM_OPENEYE_ISO_SMILES>
C1=CC=C2C(=C1)C(=NC(=N2)NC3=CC(=CC=C3)Cl)NCC4=CC=CO4

> <PUBCHEM_CACTVS_TPSA>
63

> <PUBCHEM_MONOISOTOPIC_WEIGHT>
350.0934388

> <PUBCHEM_TOTAL_CHARGE>
0

> <PUBCHEM_HEAVY_ATOM_COUNT>
25

> <PUBCHEM_ATOM_DEF_STEREO_COUNT>
0

> <PUBCHEM_ATOM_UDEF_STEREO_COUNT>
0

> <PUBCHEM_BOND_DEF_STEREO_COUNT>
0

> <PUBCHEM_BOND_UDEF_STEREO_COUNT>
0

> <PUBCHEM_ISOTOPIC_ATOM_COUNT>
0

> <PUBCHEM_COMPONENT_COUNT>
1

> <PUBCHEM_CACTVS_TAUTO_COUNT>
9

> <PUBCHEM_COORDINATE_TYPE>
1
5
255

> <PUBCHEM_BONDANNOTATIONS>
12  15  8
13  18  8
14  16  8
15  16  8
17  19  8
17  20  8
18  21  8
19  23  8
2  13  8
2  22  8
20  24  8
21  22  8
23  25  8
24  25  8
4  11  8
4  8  8
5  11  8
5  9  8
7  12  8
7  8  8
7  9  8
9  14  8

$$$$
265893
  -OEChem-08172310442D

 29 31  0     0  0  0  0  0  0999 V2000
    5.4641   -1.7500    0.0000 O   0  0  0  0  0  0  0  0  0  0  0  0
    3.7320    1.2500    0.0000 O   0  0  0  0  0  0  0  0  0  0  0  0
    5.4641    2.2500    0.0000 O   0  0  0  0  0  0  0  0  0  0  0  0
    6.3301   -0.2500    0.0000 C   0  0  0  0  0  0  0  0  0  0  0  0
    4.5981   -0.2500    0.0000 C   0  0  0  0  0  0  0  0  0  0  0  0
    6.3301    0.7500    0.0000 C   0  0  0  0  0  0  0  0  0  0  0  0
    5.4641   -0.7500    0.0000 C   0  0  0  0  0  0  0  0  0  0  0  0
    3.7320   -0.7500    0.0000 C   0  0  0  0  0  0  0  0  0  0  0  0
    4.5981    0.7500    0.0000 C   0  0  0  0  0  0  0  0  0  0  0  0
    5.4641    1.2500    0.0000 C   0  0  0  0  0  0  0  0  0  0  0  0
    7.2241   -0.7847    0.0000 C   0  0  0  0  0  0  0  0  0  0  0  0
    7.2241    1.2847    0.0000 C   0  0  0  0  0  0  0  0  0  0  0  0
    8.1301   -0.2708    0.0000 C   0  0  0  0  0  0  0  0  0  0  0  0
    2.8660   -0.2500    0.0000 C   0  0  0  0  0  0  0  0  0  0  0  0
    3.7320   -1.7500    0.0000 C   0  0  0  0  0  0  0  0  0  0  0  0
    8.1301    0.7708    0.0000 C   0  0  0  0  0  0  0  0  0  0  0  0
    2.0000   -0.7500    0.0000 C   0  0  0  0  0  0  0  0  0  0  0  0
    2.8660   -2.2500    0.0000 C   0  0  0  0  0  0  0  0  0  0  0  0
    2.0000   -1.7500    0.0000 C   0  0  0  0  0  0  0  0  0  0  0  0
    7.2169   -1.4046    0.0000 H   0  0  0  0  0  0  0  0  0  0  0  0
    7.2169    1.9046    0.0000 H   0  0  0  0  0  0  0  0  0  0  0  0
    2.8660    0.3700    0.0000 H   0  0  0  0  0  0  0  0  0  0  0  0
    4.2690   -2.0600    0.0000 H   0  0  0  0  0  0  0  0  0  0  0  0
    8.6659   -0.5829    0.0000 H   0  0  0  0  0  0  0  0  0  0  0  0
    8.6659    1.0829    0.0000 H   0  0  0  0  0  0  0  0  0  0  0  0
    1.4631   -0.4400    0.0000 H   0  0  0  0  0  0  0  0  0  0  0  0
    2.8660   -2.8700    0.0000 H   0  0  0  0  0  0  0  0  0  0  0  0
    6.0010   -2.0600    0.0000 H   0  0  0  0  0  0  0  0  0  0  0  0
    1.4631   -2.0600    0.0000 H   0  0  0  0  0  0  0  0  0  0  0  0
  1  7  1  0  0  0  0
  1 28  1  0  0  0  0
  2  9  2  0  0  0  0
  3 10  2  0  0  0  0
  4  6  1  0  0  0  0
  4  7  1  0  0  0  0
  4 11  2  0  0  0  0
  5  7  2  0  0  0  0
  5  8  1  0  0  0  0
  5  9  1  0  0  0  0
  6 10  1  0  0  0  0
  6 12  2  0  0  0  0
  8 14  2  0  0  0  0
  8 15  1  0  0  0  0
  9 10  1  0  0  0  0
 11 13  1  0  0  0  0
 11 20  1  0  0  0  0
 12 16  1  0  0  0  0
 12 21  1  0  0  0  0
 13 16  2  0  0  0  0
 13 24  1  0  0  0  0
 14 17  1  0  0  0  0
 14 22  1  0  0  0  0
 15 18  2  0  0  0  0
 15 23  1  0  0  0  0
 16 25  1  0  0  0  0
 17 19  2  0  0  0  0
 17 26  1  0  0  0  0
 18 19  1  0  0  0  0
 18 27  1  0  0  0  0
 19 29  1  0  0  0  0
M  END
> <PUBCHEM_COMPOUND_CID>
265893

> <PUBCHEM_COMPOUND_CANONICALIZED>
1

> <PUBCHEM_CACTVS_COMPLEXITY>
429

> <PUBCHEM_CACTVS_HBOND_ACCEPTOR>
3

> <PUBCHEM_CACTVS_HBOND_DONOR>
1

> <PUBCHEM_CACTVS_ROTATABLE_BOND>
1

> <PUBCHEM_CACTVS_SUBSKEYS>
AAADccB4MAAAAAAAAAAAAAAAAAAAAAAAAAAwYIAAAAAAAACBQAAAGgAACAAADASAmAAwAIAAAgCIAqBSAAACAAAkIAAIiAEACMgIJjKAFRCAcQAkwAEImYeKzOCOgAAAAAAQAAAAAAAAACAAAAAAAAAAAA==

> <PUBCHEM_IUPAC_OPENEYE_NAME>
4-hydroxy-3-phenyl-naphthalene-1,2-dione

> <PUBCHEM_IUPAC_CAS_NAME>
4-hydroxy-3-phenylnaphthalene-1,2-dione

> <PUBCHEM_IUPAC_NAME_MARKUP>
4-hydroxy-3-phenylnaphthalene-1,2-dione

> <PUBCHEM_IUPAC_NAME>
4-hydroxy-3-phenylnaphthalene-1,2-dione

> <PUBCHEM_IUPAC_SYSTEMATIC_NAME>
4-oxidanyl-3-phenyl-naphthalene-1,2-dione

> <PUBCHEM_IUPAC_TRADITIONAL_NAME>
4-hydroxy-3-phenyl-1,2-naphthoquinone

> <PUBCHEM_IUPAC_INCHI>
InChI=1S/C16H10O3/c17-14-11-8-4-5-9-12(11)15(18)16(19)13(14)10-6-2-1-3-7-10/h1-9,17H

> <PUBCHEM_IUPAC_INCHIKEY>
HCKUADBGJIXWTR-UHFFFAOYSA-N

> <PUBCHEM_XLOGP3_AA>
2.5

> <PUBCHEM_EXACT_MASS>
250.062994177

> <PUBCHEM_MOLECULAR_FORMULA>
C16H10O3

> <PUBCHEM_MOLECULAR_WEIGHT>
250.25

> <PUBCHEM_OPENEYE_CAN_SMILES>
C1=CC=C(C=C1)C2=C(C3=CC=CC=C3C(=O)C2=O)O

> <PUBCHEM_OPENEYE_ISO_SMILES>
C1=CC=C(C=C1)C2=C(C3=CC=CC=C3C(=O)C2=O)O

> <PUBCHEM_CACTVS_TPSA>
54.4

> <PUBCHEM_MONOISOTOPIC_WEIGHT>
250.062994177

> <PUBCHEM_TOTAL_CHARGE>
0

> <PUBCHEM_HEAVY_ATOM_COUNT>
19

> <PUBCHEM_ATOM_DEF_STEREO_COUNT>
0

> <PUBCHEM_ATOM_UDEF_STEREO_COUNT>
0

> <PUBCHEM_BOND_DEF_STEREO_COUNT>
0

> <PUBCHEM_BOND_UDEF_STEREO_COUNT>
0

> <PUBCHEM_ISOTOPIC_ATOM_COUNT>
0

> <PUBCHEM_COMPONENT_COUNT>
1

> <PUBCHEM_CACTVS_TAUTO_COUNT>
-1

> <PUBCHEM_COORDINATE_TYPE>
1
5
255

> <PUBCHEM_BONDANNOTATIONS>
11  13  8
12  16  8
13  16  8
14  17  8
15  18  8
17  19  8
18  19  8
4  11  8
4  6  8
6  12  8
8  14  8
8  15  8

$$$$
162366983
  -OEChem-08172310442D

 54 57  0     1  0  0  0  0  0999 V2000
    3.7320    3.7500    0.0000 F   0  0  0  0  0  0  0  0  0  0  0  0
    2.0000    2.7500    0.0000 F   0  0  0  0  0  0  0  0  0  0  0  0
    9.3850    1.8568    0.0000 O   0  0  0  0  0  0  0  0  0  0  0  0
    6.3301   -0.7500    0.0000 O   0  0  0  0  0  0  0  0  0  0  0  0
    6.3301    1.2500    0.0000 O   0  0  0  0  0  0  0  0  0  0  0  0
    7.1962   -2.2500    0.0000 N   0  0  0  0  0  0  0  0  0  0  0  0
    8.7260   -2.7500    0.0000 N   0  0  0  0  0  0  0  0  0  0  0  0
    8.1424   -3.5547    0.0000 N   0  0  0  0  0  0  0  0  0  0  0  0
    5.4641   -3.2500    0.0000 N   0  0  0  0  0  0  0  0  0  0  0  0
   10.3635    2.0630    0.0000 C   0  0  0  0  0  0  0  0  0  0  0  0
   11.3420    2.2692    0.0000 C   0  0  0  0  0  0  0  0  0  0  0  0
   10.1573    3.0415    0.0000 C   0  0  0  0  0  0  0  0  0  0  0  0
   10.5697    1.0845    0.0000 C   0  0  0  0  0  0  0  0  0  0  0  0
    8.1424   -1.9453    0.0000 C   0  0  0  0  0  0  0  0  0  0  0  0
    8.4530   -0.9947    0.0000 C   0  0  0  0  0  0  0  0  0  0  0  0
    9.0744    0.9063    0.0000 C   0  0  0  0  0  0  0  0  0  0  0  0
    5.4641    0.7500    0.0000 C   0  0  3  0  0  0  0  0  0  0  0  0
    6.3301   -1.7500    0.0000 C   0  0  0  0  0  0  0  0  0  0  0  0
    5.4641   -0.2500    0.0000 C   0  0  0  0  0  0  0  0  0  0  0  0
    7.1962   -3.2500    0.0000 C   0  0  0  0  0  0  0  0  0  0  0  0
    7.7852   -0.2504    0.0000 C   0  0  0  0  0  0  0  0  0  0  0  0
    9.4315   -0.7885    0.0000 C   0  0  0  0  0  0  0  0  0  0  0  0
    8.0958    0.7001    0.0000 C   0  0  0  0  0  0  0  0  0  0  0  0
    9.7422    0.1620    0.0000 C   0  0  0  0  0  0  0  0  0  0  0  0
    4.5981    1.2500    0.0000 C   0  0  0  0  0  0  0  0  0  0  0  0
    5.4641   -2.2500    0.0000 C   0  0  0  0  0  0  0  0  0  0  0  0
    6.3301   -3.7500    0.0000 C   0  0  0  0  0  0  0  0  0  0  0  0
    4.5981    2.2500    0.0000 C   0  0  0  0  0  0  0  0  0  0  0  0
    3.7320    0.7500    0.0000 C   0  0  0  0  0  0  0  0  0  0  0  0
    3.7320    2.7500    0.0000 C   0  0  0  0  0  0  0  0  0  0  0  0
    2.8660    1.2500    0.0000 C   0  0  0  0  0  0  0  0  0  0  0  0
    2.8660    2.2500    0.0000 C   0  0  0  0  0  0  0  0  0  0  0  0
   11.4699    1.6626    0.0000 H   0  0  0  0  0  0  0  0  0  0  0  0
   11.9487    2.3971    0.0000 H   0  0  0  0  0  0  0  0  0  0  0  0
   11.2142    2.8759    0.0000 H   0  0  0  0  0  0  0  0  0  0  0  0
   10.7640    3.1694    0.0000 H   0  0  0  0  0  0  0  0  0  0  0  0
   10.0295    3.6482    0.0000 H   0  0  0  0  0  0  0  0  0  0  0  0
    9.5506    2.9137    0.0000 H   0  0  0  0  0  0  0  0  0  0  0  0
    9.9631    0.9567    0.0000 H   0  0  0  0  0  0  0  0  0  0  0  0
   10.6976    0.4779    0.0000 H   0  0  0  0  0  0  0  0  0  0  0  0
   11.1764    1.2124    0.0000 H   0  0  0  0  0  0  0  0  0  0  0  0
    5.4641    1.3700    0.0000 H   0  0  0  0  0  0  0  0  0  0  0  0
    4.8535   -0.1423    0.0000 H   0  0  0  0  0  0  0  0  0  0  0  0
    5.2520   -0.8326    0.0000 H   0  0  0  0  0  0  0  0  0  0  0  0
    7.1785   -0.3783    0.0000 H   0  0  0  0  0  0  0  0  0  0  0  0
    9.8456   -1.2500    0.0000 H   0  0  0  0  0  0  0  0  0  0  0  0
    7.6818    1.1615    0.0000 H   0  0  0  0  0  0  0  0  0  0  0  0
   10.3489    0.2898    0.0000 H   0  0  0  0  0  0  0  0  0  0  0  0
    4.9272   -1.9400    0.0000 H   0  0  0  0  0  0  0  0  0  0  0  0
    6.3301   -4.3700    0.0000 H   0  0  0  0  0  0  0  0  0  0  0  0
    5.1350    2.5600    0.0000 H   0  0  0  0  0  0  0  0  0  0  0  0
    3.7320    0.1300    0.0000 H   0  0  0  0  0  0  0  0  0  0  0  0
    6.3301    1.8700    0.0000 H   0  0  0  0  0  0  0  0  0  0  0  0
    2.3291    0.9400    0.0000 H   0  0  0  0  0  0  0  0  0  0  0  0
  1 30  1  0  0  0  0
  2 32  1  0  0  0  0
  3 10  1  0  0  0  0
  3 16  1  0  0  0  0
  4 18  1  0  0  0  0
  4 19  1  0  0  0  0
  5 17  1  0  0  0  0
  5 53  1  0  0  0  0
  6 14  1  0  0  0  0
  6 18  1  0  0  0  0
  6 20  1  0  0  0  0
  7  8  1  0  0  0  0
  7 14  2  0  0  0  0
  8 20  2  0  0  0  0
  9 26  1  0  0  0  0
  9 27  2  0  0  0  0
 10 11  1  0  0  0  0
 10 12  1  0  0  0  0
 10 13  1  0  0  0  0
 11 33  1  0  0  0  0
 11 34  1  0  0  0  0
 11 35  1  0  0  0  0
 12 36  1  0  0  0  0
 12 37  1  0  0  0  0
 12 38  1  0  0  0  0
 13 39  1  0  0  0  0
 13 40  1  0  0  0  0
 13 41  1  0  0  0  0
 14 15  1  0  0  0  0
 15 21  2  0  0  0  0
 15 22  1  0  0  0  0
 16 23  2  0  0  0  0
 16 24  1  0  0  0  0
 17 19  1  0  0  0  0
 17 25  1  0  0  0  0
 17 42  1  0  0  0  0
 18 26  2  0  0  0  0
 19 43  1  0  0  0  0
 19 44  1  0  0  0  0
 20 27  1  0  0  0  0
 21 23  1  0  0  0  0
 21 45  1  0  0  0  0
 22 24  2  0  0  0  0
 22 46  1  0  0  0  0
 23 47  1  0  0  0  0
 24 48  1  0  0  0  0
 25 28  2  0  0  0  0
 25 29  1  0  0  0  0
 26 49  1  0  0  0  0
 27 50  1  0  0  0  0
 28 30  1  0  0  0  0
 28 51  1  0  0  0  0
 29 31  2  0  0  0  0
 29 52  1  0  0  0  0
 30 32  2  0  0  0  0
 31 32  1  0  0  0  0
 31 54  1  0  0  0  0
M  END
> <PUBCHEM_COMPOUND_CID>
162366983

> <PUBCHEM_COMPOUND_CANONICALIZED>
1

> <PUBCHEM_CACTVS_COMPLEXITY>
602

> <PUBCHEM_CACTVS_HBOND_ACCEPTOR>
8

> <PUBCHEM_CACTVS_HBOND_DONOR>
1

> <PUBCHEM_CACTVS_ROTATABLE_BOND>
7

> <PUBCHEM_CACTVS_SUBSKEYS>
AAADceB7sYAAAAAAAAAAAAAAAAAAAWAAAAA8YIAAAAAAAFgB9AAAHwAICAAADFThmw4/tp8MHgCiAjJnZASSjC8xcqAdyCA/PJiPfuKEuRuf+CjkyBObuCeQ0KIOIAAAAAAAAABAAAAAAAAAAAAAAAAAAA==

> <PUBCHEM_IUPAC_OPENEYE_NAME>
2-[[3-(4-tert-butoxyphenyl)-[1,2,4]triazolo[4,3-a]pyrazin-5-yl]oxy]-1-(3,4-difluorophenyl)ethanol

> <PUBCHEM_IUPAC_CAS_NAME>
1-(3,4-difluorophenyl)-2-[[3-[4-[(2-methylpropan-2-yl)oxy]phenyl]-[1,2,4]triazolo[4,3-a]pyrazin-5-yl]oxy]ethanol

> <PUBCHEM_IUPAC_NAME_MARKUP>
1-(3,4-difluorophenyl)-2-[[3-[4-[(2-methylpropan-2-yl)oxy]phenyl]-[1,2,4]triazolo[4,3-a]pyrazin-5-yl]oxy]ethanol

> <PUBCHEM_IUPAC_NAME>
1-(3,4-difluorophenyl)-2-[[3-[4-[(2-methylpropan-2-yl)oxy]phenyl]-[1,2,4]triazolo[4,3-a]pyrazin-5-yl]oxy]ethanol

> <PUBCHEM_IUPAC_SYSTEMATIC_NAME>
1-[3,4-bis(fluoranyl)phenyl]-2-[[3-[4-[(2-methylpropan-2-yl)oxy]phenyl]-[1,2,4]triazolo[4,3-a]pyrazin-5-yl]oxy]ethanol

> <PUBCHEM_IUPAC_TRADITIONAL_NAME>
2-[[3-(4-tert-butoxyphenyl)-[1,2,4]triazolo[4,3-a]pyrazin-5-yl]oxy]-1-(3,4-difluorophenyl)ethanol

> <PUBCHEM_IUPAC_INCHI>
InChI=1S/C23H22F2N4O3/c1-23(2,3)32-16-7-4-14(5-8-16)22-28-27-20-11-26-12-21(29(20)22)31-13-19(30)15-6-9-17(24)18(25)10-15/h4-12,19,30H,13H2,1-3H3

> <PUBCHEM_IUPAC_INCHIKEY>
YXNHLRADFLNVIV-UHFFFAOYSA-N

> <PUBCHEM_XLOGP3_AA>
4.1

> <PUBCHEM_EXACT_MASS>
440.16599690

> <PUBCHEM_MOLECULAR_FORMULA>
C23H22F2N4O3

> <PUBCHEM_MOLECULAR_WEIGHT>
440.4

> <PUBCHEM_OPENEYE_CAN_SMILES>
CC(C)(C)OC1=CC=C(C=C1)C2=NN=C3N2C(=CN=C3)OCC(C4=CC(=C(C=C4)F)F)O

> <PUBCHEM_OPENEYE_ISO_SMILES>
CC(C)(C)OC1=CC=C(C=C1)C2=NN=C3N2C(=CN=C3)OCC(C4=CC(=C(C=C4)F)F)O

> <PUBCHEM_CACTVS_TPSA>
81.8

> <PUBCHEM_MONOISOTOPIC_WEIGHT>
440.16599690

> <PUBCHEM_TOTAL_CHARGE>
0

> <PUBCHEM_HEAVY_ATOM_COUNT>
32

> <PUBCHEM_ATOM_DEF_STEREO_COUNT>
0

> <PUBCHEM_ATOM_UDEF_STEREO_COUNT>
1

> <PUBCHEM_BOND_DEF_STEREO_COUNT>
0

> <PUBCHEM_BOND_UDEF_STEREO_COUNT>
0

> <PUBCHEM_ISOTOPIC_ATOM_COUNT>
0

> <PUBCHEM_COMPONENT_COUNT>
1

> <PUBCHEM_CACTVS_TAUTO_COUNT>
-1

> <PUBCHEM_COORDINATE_TYPE>
1
5
255

> <PUBCHEM_BONDANNOTATIONS>
15  21  8
15  22  8
16  23  8
16  24  8
18  26  8
20  27  8
21  23  8
22  24  8
25  28  8
25  29  8
28  30  8
29  31  8
30  32  8
31  32  8
17  5  3
6  14  8
6  18  8
6  20  8
7  14  8
7  8  8
8  20  8
9  26  8
9  27  8

$$$$
162640602
  -OEChem-08172310442D

 60 63  0     0  0  0  0  0  0999 V2000
    6.3009   -2.3443    0.0000 O   0  0  0  0  0  0  0  0  0  0  0  0
    8.9095   -1.7997    0.0000 O   0  0  0  0  0  0  0  0  0  0  0  0
   11.5076    0.7003    0.0000 O   0  0  0  0  0  0  0  0  0  0  0  0
    2.8833   -6.3841    0.0000 O   0  0  0  0  0  0  0  0  0  0  0  0
    2.0000   -4.8942    0.0000 O   0  0  0  0  0  0  0  0  0  0  0  0
    9.7755   -0.2997    0.0000 N   0  0  0  0  0  0  0  0  0  0  0  0
    8.9095    1.2003    0.0000 N   0  0  0  0  0  0  0  0  0  0  0  0
   10.6416    2.2003    0.0000 N   0  0  0  0  0  0  0  0  0  0  0  0
    8.0435   -0.2997    0.0000 C   0  0  0  0  0  0  0  0  0  0  0  0
    7.1496   -0.8344    0.0000 C   0  0  0  0  0  0  0  0  0  0  0  0
    8.0435    0.7003    0.0000 C   0  0  0  0  0  0  0  0  0  0  0  0
    7.1611   -1.8343    0.0000 C   0  0  0  0  0  0  0  0  0  0  0  0
    8.9095   -0.7997    0.0000 C   0  0  0  0  0  0  0  0  0  0  0  0
   11.5076    3.7003    0.0000 C   0  0  0  0  0  0  0  0  0  0  0  0
   11.5076    2.7003    0.0000 C   0  0  0  0  0  0  0  0  0  0  0  0
    6.2435   -0.3205    0.0000 C   0  0  0  0  0  0  0  0  0  0  0  0
    9.7755    0.7003    0.0000 C   0  0  0  0  0  0  0  0  0  0  0  0
   10.6416    5.2003    0.0000 C   0  0  0  0  0  0  0  0  0  0  0  0
    7.1496    1.2349    0.0000 C   0  0  0  0  0  0  0  0  0  0  0  0
   10.6416    4.2003    0.0000 C   0  0  0  0  0  0  0  0  0  0  0  0
    6.2435    0.7211    0.0000 C   0  0  0  0  0  0  0  0  0  0  0  0
    9.7755    5.7003    0.0000 C   0  0  0  0  0  0  0  0  0  0  0  0
   10.6416    1.2003    0.0000 C   0  0  0  0  0  0  0  0  0  0  0  0
    6.3125   -3.3442    0.0000 C   0  0  0  0  0  0  0  0  0  0  0  0
   12.3736    4.2003    0.0000 C   0  0  0  0  0  0  0  0  0  0  0  0
   11.5076    5.7003    0.0000 C   0  0  0  0  0  0  0  0  0  0  0  0
    5.4523   -3.8542    0.0000 C   0  0  0  0  0  0  0  0  0  0  0  0
   12.3736    5.2003    0.0000 C   0  0  0  0  0  0  0  0  0  0  0  0
    9.7755    6.7003    0.0000 C   0  0  0  0  0  0  0  0  0  0  0  0
    4.5806   -3.3643    0.0000 C   0  0  0  0  0  0  0  0  0  0  0  0
    5.4639   -4.8542    0.0000 C   0  0  0  0  0  0  0  0  0  0  0  0
    3.7204   -3.8742    0.0000 C   0  0  0  0  0  0  0  0  0  0  0  0
    4.6037   -5.3641    0.0000 C   0  0  0  0  0  0  0  0  0  0  0  0
    3.7319   -4.8742    0.0000 C   0  0  0  0  0  0  0  0  0  0  0  0
    2.8718   -5.3842    0.0000 C   0  0  0  0  0  0  0  0  0  0  0  0
    7.3799   -2.4144    0.0000 H   0  0  0  0  0  0  0  0  0  0  0  0
    7.7704   -1.7196    0.0000 H   0  0  0  0  0  0  0  0  0  0  0  0
   11.7196    2.1177    0.0000 H   0  0  0  0  0  0  0  0  0  0  0  0
   12.1182    2.8079    0.0000 H   0  0  0  0  0  0  0  0  0  0  0  0
    5.7078   -0.6326    0.0000 H   0  0  0  0  0  0  0  0  0  0  0  0
    7.1567    1.8549    0.0000 H   0  0  0  0  0  0  0  0  0  0  0  0
   10.3125   -0.6097    0.0000 H   0  0  0  0  0  0  0  0  0  0  0  0
   10.1046    3.8903    0.0000 H   0  0  0  0  0  0  0  0  0  0  0  0
    5.7078    1.0332    0.0000 H   0  0  0  0  0  0  0  0  0  0  0  0
    9.1650    5.8079    0.0000 H   0  0  0  0  0  0  0  0  0  0  0  0
    9.5635    5.1177    0.0000 H   0  0  0  0  0  0  0  0  0  0  0  0
   10.1046    2.5103    0.0000 H   0  0  0  0  0  0  0  0  0  0  0  0
    6.5313   -3.9244    0.0000 H   0  0  0  0  0  0  0  0  0  0  0  0
    6.9218   -3.2295    0.0000 H   0  0  0  0  0  0  0  0  0  0  0  0
   12.9106    3.8903    0.0000 H   0  0  0  0  0  0  0  0  0  0  0  0
   11.5076    6.3203    0.0000 H   0  0  0  0  0  0  0  0  0  0  0  0
   12.9106    5.5103    0.0000 H   0  0  0  0  0  0  0  0  0  0  0  0
   10.3955    6.7003    0.0000 H   0  0  0  0  0  0  0  0  0  0  0  0
    9.7755    7.3203    0.0000 H   0  0  0  0  0  0  0  0  0  0  0  0
    9.1555    6.7003    0.0000 H   0  0  0  0  0  0  0  0  0  0  0  0
    4.5734   -2.7443    0.0000 H   0  0  0  0  0  0  0  0  0  0  0  0
    6.0043   -5.1579    0.0000 H   0  0  0  0  0  0  0  0  0  0  0  0
    3.1799   -3.5705    0.0000 H   0  0  0  0  0  0  0  0  0  0  0  0
    4.6108   -5.9841    0.0000 H   0  0  0  0  0  0  0  0  0  0  0  0
    2.3500   -6.7003    0.0000 H   0  0  0  0  0  0  0  0  0  0  0  0
  1 12  1  0  0  0  0
  1 24  1  0  0  0  0
  2 13  2  0  0  0  0
  3 23  2  0  0  0  0
  4 35  1  0  0  0  0
  4 60  1  0  0  0  0
  5 35  2  0  0  0  0
  6 13  1  0  0  0  0
  6 17  1  0  0  0  0
  6 42  1  0  0  0  0
  7 11  1  0  0  0  0
  7 17  2  0  0  0  0
  8 15  1  0  0  0  0
  8 23  1  0  0  0  0
  8 47  1  0  0  0  0
  9 10  2  0  0  0  0
  9 11  1  0  0  0  0
  9 13  1  0  0  0  0
 10 12  1  0  0  0  0
 10 16  1  0  0  0  0
 11 19  2  0  0  0  0
 12 36  1  0  0  0  0
 12 37  1  0  0  0  0
 14 15  1  0  0  0  0
 14 20  1  0  0  0  0
 14 25  2  0  0  0  0
 15 38  1  0  0  0  0
 15 39  1  0  0  0  0
 16 21  2  0  0  0  0
 16 40  1  0  0  0  0
 17 23  1  0  0  0  0
 18 20  2  0  0  0  0
 18 22  1  0  0  0  0
 18 26  1  0  0  0  0
 19 21  1  0  0  0  0
 19 41  1  0  0  0  0
 20 43  1  0  0  0  0
 21 44  1  0  0  0  0
 22 29  1  0  0  0  0
 22 45  1  0  0  0  0
 22 46  1  0  0  0  0
 24 27  1  0  0  0  0
 24 48  1  0  0  0  0
 24 49  1  0  0  0  0
 25 28  1  0  0  0  0
 25 50  1  0  0  0  0
 26 28  2  0  0  0  0
 26 51  1  0  0  0  0
 27 30  2  0  0  0  0
 27 31  1  0  0  0  0
 28 52  1  0  0  0  0
 29 53  1  0  0  0  0
 29 54  1  0  0  0  0
 29 55  1  0  0  0  0
 30 32  1  0  0  0  0
 30 56  1  0  0  0  0
 31 33  2  0  0  0  0
 31 57  1  0  0  0  0
 32 34  2  0  0  0  0
 32 58  1  0  0  0  0
 33 34  1  0  0  0  0
 33 59  1  0  0  0  0
 34 35  1  0  0  0  0
M  END
> <PUBCHEM_COMPOUND_CID>
162640602

> <PUBCHEM_COMPOUND_CANONICALIZED>
1

> <PUBCHEM_CACTVS_COMPLEXITY>
792

> <PUBCHEM_CACTVS_HBOND_ACCEPTOR>
6

> <PUBCHEM_CACTVS_HBOND_DONOR>
3

> <PUBCHEM_CACTVS_ROTATABLE_BOND>
9

> <PUBCHEM_CACTVS_SUBSKEYS>
AAADceB7OAAAAAAAAAAAAAAAAAAAAAAAAAAwYMEAAAAAAACBUAAAHgAQCAAADAjhmAYzyILABgCoAifyfACCAAEkAgAJiIGIbMgIZjqA/bmWcYhkxgGI+ce6yPCOwAACQAASAACAAASAACQAAAAAAAAAAA==

> <PUBCHEM_IUPAC_OPENEYE_NAME>
4-[[2-[(3-ethylphenyl)methylcarbamoyl]-4-oxo-3H-quinazolin-5-yl]methoxymethyl]benzoic acid

> <PUBCHEM_IUPAC_CAS_NAME>
4-[[2-[[(3-ethylphenyl)methylamino]-oxomethyl]-4-oxo-3H-quinazolin-5-yl]methoxymethyl]benzoic acid

> <PUBCHEM_IUPAC_NAME_MARKUP>
4-[[2-[(3-ethylphenyl)methylcarbamoyl]-4-oxo-3<I>H</I>-quinazolin-5-yl]methoxymethyl]benzoic acid

> <PUBCHEM_IUPAC_NAME>
4-[[2-[(3-ethylphenyl)methylcarbamoyl]-4-oxo-3H-quinazolin-5-yl]methoxymethyl]benzoic acid

> <PUBCHEM_IUPAC_SYSTEMATIC_NAME>
4-[[2-[(3-ethylphenyl)methylcarbamoyl]-4-oxidanylidene-3H-quinazolin-5-yl]methoxymethyl]benzoic acid

> <PUBCHEM_IUPAC_TRADITIONAL_NAME>
4-[[2-[(3-ethylbenzyl)carbamoyl]-4-keto-3H-quinazolin-5-yl]methoxymethyl]benzoic acid

> <PUBCHEM_IUPAC_INCHI>
InChI=1S/C27H25N3O5/c1-2-17-5-3-6-19(13-17)14-28-26(32)24-29-22-8-4-7-21(23(22)25(31)30-24)16-35-15-18-9-11-20(12-10-18)27(33)34/h3-13H,2,14-16H2,1H3,(H,28,32)(H,33,34)(H,29,30,31)

> <PUBCHEM_IUPAC_INCHIKEY>
CDHLOPRLDZOQMK-UHFFFAOYSA-N

> <PUBCHEM_XLOGP3_AA>
3.4

> <PUBCHEM_EXACT_MASS>
471.17942091

> <PUBCHEM_MOLECULAR_FORMULA>
C27H25N3O5

> <PUBCHEM_MOLECULAR_WEIGHT>
471.5

> <PUBCHEM_OPENEYE_CAN_SMILES>
CCC1=CC(=CC=C1)CNC(=O)C2=NC3=CC=CC(=C3C(=O)N2)COCC4=CC=C(C=C4)C(=O)O

> <PUBCHEM_OPENEYE_ISO_SMILES>
CCC1=CC(=CC=C1)CNC(=O)C2=NC3=CC=CC(=C3C(=O)N2)COCC4=CC=C(C=C4)C(=O)O

> <PUBCHEM_CACTVS_TPSA>
117

> <PUBCHEM_MONOISOTOPIC_WEIGHT>
471.17942091

> <PUBCHEM_TOTAL_CHARGE>
0

> <PUBCHEM_HEAVY_ATOM_COUNT>
35

> <PUBCHEM_ATOM_DEF_STEREO_COUNT>
0

> <PUBCHEM_ATOM_UDEF_STEREO_COUNT>
0

> <PUBCHEM_BOND_DEF_STEREO_COUNT>
0

> <PUBCHEM_BOND_UDEF_STEREO_COUNT>
0

> <PUBCHEM_ISOTOPIC_ATOM_COUNT>
0

> <PUBCHEM_COMPONENT_COUNT>
1

> <PUBCHEM_CACTVS_TAUTO_COUNT>
-1

> <PUBCHEM_COORDINATE_TYPE>
1
5
255

> <PUBCHEM_BONDANNOTATIONS>
10  16  8
11  19  8
14  20  8
14  25  8
16  21  8
18  20  8
18  26  8
19  21  8
25  28  8
26  28  8
27  30  8
27  31  8
30  32  8
31  33  8
32  34  8
33  34  8
6  13  8
6  17  8
7  11  8
7  17  8
9  10  8
9  11  8
9  13  8

$$$$
71521073
  -OEChem-08172310442D

 76 79  0     1  0  0  0  0  0999 V2000
    7.1962    3.5000    0.0000 O   0  0  0  0  0  0  0  0  0  0  0  0
    6.3301   -4.0000    0.0000 O   0  0  0  0  0  0  0  0  0  0  0  0
    4.5981    1.0000    0.0000 O   0  0  0  0  0  0  0  0  0  0  0  0
    4.5981   -4.0000    0.0000 N   0  0  0  0  0  0  0  0  0  0  0  0
    2.8660   -5.0000    0.0000 N   0  0  0  0  0  0  0  0  0  0  0  0
    6.3301    1.0000    0.0000 N   0  0  0  0  0  0  0  0  0  0  0  0
    8.9282    2.5000    0.0000 N   0  0  0  0  0  0  0  0  0  0  0  0
    6.3301    2.0000    0.0000 C   0  0  2  0  0  0  0  0  0  0  0  0
    7.1962    2.5000    0.0000 C   0  0  1  0  0  0  0  0  0  0  0  0
    4.5981   -5.0000    0.0000 C   0  0  0  0  0  0  0  0  0  0  0  0
    3.7320   -3.5000    0.0000 C   0  0  0  0  0  0  0  0  0  0  0  0
    3.7320   -5.5000    0.0000 C   0  0  0  0  0  0  0  0  0  0  0  0
    2.8660   -4.0000    0.0000 C   0  0  0  0  0  0  0  0  0  0  0  0
    5.4641    2.5000    0.0000 C   0  0  0  0  0  0  0  0  0  0  0  0
    8.0622    2.0000    0.0000 C   0  0  0  0  0  0  0  0  0  0  0  0
    9.7942    2.0000    0.0000 C   0  0  1  0  0  0  0  0  0  0  0  0
    5.4641   -3.5000    0.0000 C   0  0  0  0  0  0  0  0  0  0  0  0
    5.4641    3.5000    0.0000 C   0  0  0  0  0  0  0  0  0  0  0  0
    2.0000   -5.5000    0.0000 C   0  0  0  0  0  0  0  0  0  0  0  0
    5.4641   -2.5000    0.0000 C   0  0  0  0  0  0  0  0  0  0  0  0
    5.4641    0.5000    0.0000 C   0  0  0  0  0  0  0  0  0  0  0  0
   10.6603    2.5000    0.0000 C   0  0  0  0  0  0  0  0  0  0  0  0
    5.4641   -0.5000    0.0000 C   0  0  0  0  0  0  0  0  0  0  0  0
    9.7942    1.0000    0.0000 C   0  0  0  0  0  0  0  0  0  0  0  0
    4.5981    4.0000    0.0000 C   0  0  0  0  0  0  0  0  0  0  0  0
    6.3301    4.0000    0.0000 C   0  0  0  0  0  0  0  0  0  0  0  0
    6.3301   -2.0000    0.0000 C   0  0  0  0  0  0  0  0  0  0  0  0
    4.5981   -2.0000    0.0000 C   0  0  0  0  0  0  0  0  0  0  0  0
    6.3301   -1.0000    0.0000 C   0  0  0  0  0  0  0  0  0  0  0  0
    4.5981   -1.0000    0.0000 C   0  0  0  0  0  0  0  0  0  0  0  0
   10.6603    3.5000    0.0000 C   0  0  0  0  0  0  0  0  0  0  0  0
   11.5263    2.0000    0.0000 C   0  0  0  0  0  0  0  0  0  0  0  0
    4.5981    5.0000    0.0000 C   0  0  0  0  0  0  0  0  0  0  0  0
    6.3301    5.0000    0.0000 C   0  0  0  0  0  0  0  0  0  0  0  0
    5.4641    5.5000    0.0000 C   0  0  0  0  0  0  0  0  0  0  0  0
   11.5263    4.0000    0.0000 C   0  0  0  0  0  0  0  0  0  0  0  0
   12.3923    2.5000    0.0000 C   0  0  0  0  0  0  0  0  0  0  0  0
   12.3923    3.5000    0.0000 C   0  0  0  0  0  0  0  0  0  0  0  0
    6.8671    1.6900    0.0000 H   0  0  0  0  0  0  0  0  0  0  0  0
    6.6592    2.8100    0.0000 H   0  0  0  0  0  0  0  0  0  0  0  0
    4.8101   -5.5826    0.0000 H   0  0  0  0  0  0  0  0  0  0  0  0
    5.2087   -4.8923    0.0000 H   0  0  0  0  0  0  0  0  0  0  0  0
    4.1306   -3.0250    0.0000 H   0  0  0  0  0  0  0  0  0  0  0  0
    3.3335   -3.0250    0.0000 H   0  0  0  0  0  0  0  0  0  0  0  0
    3.3335   -5.9750    0.0000 H   0  0  0  0  0  0  0  0  0  0  0  0
    4.1306   -5.9750    0.0000 H   0  0  0  0  0  0  0  0  0  0  0  0
    2.6540   -3.4174    0.0000 H   0  0  0  0  0  0  0  0  0  0  0  0
    2.2554   -4.1077    0.0000 H   0  0  0  0  0  0  0  0  0  0  0  0
    4.8535    2.6077    0.0000 H   0  0  0  0  0  0  0  0  0  0  0  0
    5.2520    1.9174    0.0000 H   0  0  0  0  0  0  0  0  0  0  0  0
    7.6636    1.5250    0.0000 H   0  0  0  0  0  0  0  0  0  0  0  0
    8.4607    1.5250    0.0000 H   0  0  0  0  0  0  0  0  0  0  0  0
    6.8671    0.6900    0.0000 H   0  0  0  0  0  0  0  0  0  0  0  0
    8.9282    3.1200    0.0000 H   0  0  0  0  0  0  0  0  0  0  0  0
    9.2573    1.6900    0.0000 H   0  0  0  0  0  0  0  0  0  0  0  0
    1.6900   -4.9631    0.0000 H   0  0  0  0  0  0  0  0  0  0  0  0
    1.4631   -5.8100    0.0000 H   0  0  0  0  0  0  0  0  0  0  0  0
    2.3100   -6.0369    0.0000 H   0  0  0  0  0  0  0  0  0  0  0  0
    7.7331    3.8100    0.0000 H   0  0  0  0  0  0  0  0  0  0  0  0
    9.1742    1.0000    0.0000 H   0  0  0  0  0  0  0  0  0  0  0  0
    9.7942    0.3800    0.0000 H   0  0  0  0  0  0  0  0  0  0  0  0
   10.4142    1.0000    0.0000 H   0  0  0  0  0  0  0  0  0  0  0  0
    4.0611    3.6900    0.0000 H   0  0  0  0  0  0  0  0  0  0  0  0
    6.8671    3.6900    0.0000 H   0  0  0  0  0  0  0  0  0  0  0  0
    6.8671   -2.3100    0.0000 H   0  0  0  0  0  0  0  0  0  0  0  0
    4.0611   -2.3100    0.0000 H   0  0  0  0  0  0  0  0  0  0  0  0
    6.8671   -0.6900    0.0000 H   0  0  0  0  0  0  0  0  0  0  0  0
    4.0611   -0.6900    0.0000 H   0  0  0  0  0  0  0  0  0  0  0  0
   10.1233    3.8100    0.0000 H   0  0  0  0  0  0  0  0  0  0  0  0
   11.5263    1.3800    0.0000 H   0  0  0  0  0  0  0  0  0  0  0  0
    4.0611    5.3100    0.0000 H   0  0  0  0  0  0  0  0  0  0  0  0
    6.8671    5.3100    0.0000 H   0  0  0  0  0  0  0  0  0  0  0  0
    5.4641    6.1200    0.0000 H   0  0  0  0  0  0  0  0  0  0  0  0
   11.5263    4.6200    0.0000 H   0  0  0  0  0  0  0  0  0  0  0  0
   12.9292    2.1900    0.0000 H   0  0  0  0  0  0  0  0  0  0  0  0
   12.9292    3.8100    0.0000 H   0  0  0  0  0  0  0  0  0  0  0  0
  9  1  1  6  0  0  0
  1 59  1  0  0  0  0
  2 17  2  0  0  0  0
  3 21  2  0  0  0  0
  4 10  1  0  0  0  0
  4 11  1  0  0  0  0
  4 17  1  0  0  0  0
  5 12  1  0  0  0  0
  5 13  1  0  0  0  0
  5 19  1  0  0  0  0
  8  6  1  1  0  0  0
  6 21  1  0  0  0  0
  6 53  1  0  0  0  0
  7 15  1  0  0  0  0
 16  7  1  1  0  0  0
  7 54  1  0  0  0  0
  8  9  1  0  0  0  0
  8 14  1  0  0  0  0
  8 39  1  0  0  0  0
  9 15  1  0  0  0  0
  9 40  1  0  0  0  0
 10 12  1  0  0  0  0
 10 41  1  0  0  0  0
 10 42  1  0  0  0  0
 11 13  1  0  0  0  0
 11 43  1  0  0  0  0
 11 44  1  0  0  0  0
 12 45  1  0  0  0  0
 12 46  1  0  0  0  0
 13 47  1  0  0  0  0
 13 48  1  0  0  0  0
 14 18  1  0  0  0  0
 14 49  1  0  0  0  0
 14 50  1  0  0  0  0
 15 51  1  0  0  0  0
 15 52  1  0  0  0  0
 16 22  1  0  0  0  0
 16 24  1  0  0  0  0
 16 55  1  0  0  0  0
 17 20  1  0  0  0  0
 18 25  2  0  0  0  0
 18 26  1  0  0  0  0
 19 56  1  0  0  0  0
 19 57  1  0  0  0  0
 19 58  1  0  0  0  0
 20 27  2  0  0  0  0
 20 28  1  0  0  0  0
 21 23  1  0  0  0  0
 22 31  2  0  0  0  0
 22 32  1  0  0  0  0
 23 29  2  0  0  0  0
 23 30  1  0  0  0  0
 24 60  1  0  0  0  0
 24 61  1  0  0  0  0
 24 62  1  0  0  0  0
 25 33  1  0  0  0  0
 25 63  1  0  0  0  0
 26 34  2  0  0  0  0
 26 64  1  0  0  0  0
 27 29  1  0  0  0  0
 27 65  1  0  0  0  0
 28 30  2  0  0  0  0
 28 66  1  0  0  0  0
 29 67  1  0  0  0  0
 30 68  1  0  0  0  0
 31 36  1  0  0  0  0
 31 69  1  0  0  0  0
 32 37  2  0  0  0  0
 32 70  1  0  0  0  0
 33 35  2  0  0  0  0
 33 71  1  0  0  0  0
 34 35  1  0  0  0  0
 34 72  1  0  0  0  0
 35 73  1  0  0  0  0
 36 38  2  0  0  0  0
 36 74  1  0  0  0  0
 37 38  1  0  0  0  0
 37 75  1  0  0  0  0
 38 76  1  0  0  0  0
M  END
> <PUBCHEM_COMPOUND_CID>
71521073

> <PUBCHEM_COMPOUND_CANONICALIZED>
1

> <PUBCHEM_CACTVS_COMPLEXITY>
721

> <PUBCHEM_CACTVS_HBOND_ACCEPTOR>
5

> <PUBCHEM_CACTVS_HBOND_DONOR>
3

> <PUBCHEM_CACTVS_ROTATABLE_BOND>
10

> <PUBCHEM_CACTVS_SUBSKEYS>
AAADcfB7sAAAAAAAAAAAAAAAAAAAAAAAAAA8YMEAAAAAAAABUAAAHgAQCAAADDzhmAYyAIPAAgCIAiFSEACCAAAkAAAIiIEIBMgKcDKA1RGUYQhklgCYiYeYyKCOQAAAAAAAAACAAAAAAAAAAAAAAAAAAA==

> <PUBCHEM_IUPAC_OPENEYE_NAME>
N-[(1S,2R)-1-benzyl-2-hydroxy-3-[[(1R)-1-phenylethyl]amino]propyl]-4-(4-methylpiperazine-1-carbonyl)benzamide

> <PUBCHEM_IUPAC_CAS_NAME>
N-[(2S,3R)-3-hydroxy-1-phenyl-4-[[(1R)-1-phenylethyl]amino]butan-2-yl]-4-[(4-methyl-1-piperazinyl)-oxomethyl]benzamide

> <PUBCHEM_IUPAC_NAME_MARKUP>
<I>N</I>-[(2<I>S</I>,3<I>R</I>)-3-hydroxy-1-phenyl-4-[[(1<I>R</I>)-1-phenylethyl]amino]butan-2-yl]-4-(4-methylpiperazine-1-carbonyl)benzamide

> <PUBCHEM_IUPAC_NAME>
N-[(2S,3R)-3-hydroxy-1-phenyl-4-[[(1R)-1-phenylethyl]amino]butan-2-yl]-4-(4-methylpiperazine-1-carbonyl)benzamide

> <PUBCHEM_IUPAC_SYSTEMATIC_NAME>
4-(4-methylpiperazin-1-yl)carbonyl-N-[(2S,3R)-3-oxidanyl-1-phenyl-4-[[(1R)-1-phenylethyl]amino]butan-2-yl]benzamide

> <PUBCHEM_IUPAC_TRADITIONAL_NAME>
N-[(1S,2R)-1-benzyl-2-hydroxy-3-[[(1R)-1-phenylethyl]amino]propyl]-4-(4-methylpiperazine-1-carbonyl)benzamide

> <PUBCHEM_IUPAC_INCHI>
InChI=1S/C31H38N4O3/c1-23(25-11-7-4-8-12-25)32-22-29(36)28(21-24-9-5-3-6-10-24)33-30(37)26-13-15-27(16-14-26)31(38)35-19-17-34(2)18-20-35/h3-16,23,28-29,32,36H,17-22H2,1-2H3,(H,33,37)/t23-,28+,29-/m1/s1

> <PUBCHEM_IUPAC_INCHIKEY>
NCNJHAHPOUUEQX-LDVROUIZSA-N

> <PUBCHEM_XLOGP3_AA>
3.3

> <PUBCHEM_EXACT_MASS>
514.29439109

> <PUBCHEM_MOLECULAR_FORMULA>
C31H38N4O3

> <PUBCHEM_MOLECULAR_WEIGHT>
514.7

> <PUBCHEM_OPENEYE_CAN_SMILES>
CC(C1=CC=CC=C1)NCC(C(CC2=CC=CC=C2)NC(=O)C3=CC=C(C=C3)C(=O)N4CCN(CC4)C)O

> <PUBCHEM_OPENEYE_ISO_SMILES>
C[C@H](C1=CC=CC=C1)NC[C@H]([C@H](CC2=CC=CC=C2)NC(=O)C3=CC=C(C=C3)C(=O)N4CCN(CC4)C)O

> <PUBCHEM_CACTVS_TPSA>
84.9

> <PUBCHEM_MONOISOTOPIC_WEIGHT>
514.29439109

> <PUBCHEM_TOTAL_CHARGE>
0

> <PUBCHEM_HEAVY_ATOM_COUNT>
38

> <PUBCHEM_ATOM_DEF_STEREO_COUNT>
3

> <PUBCHEM_ATOM_UDEF_STEREO_COUNT>
0

> <PUBCHEM_BOND_DEF_STEREO_COUNT>
0

> <PUBCHEM_BOND_UDEF_STEREO_COUNT>
0

> <PUBCHEM_ISOTOPIC_ATOM_COUNT>
0

> <PUBCHEM_COMPONENT_COUNT>
1

> <PUBCHEM_CACTVS_TAUTO_COUNT>
-1

> <PUBCHEM_COORDINATE_TYPE>
1
5
255

> <PUBCHEM_BONDANNOTATIONS>
9  1  6
18  25  8
18  26  8
20  27  8
20  28  8
22  31  8
22  32  8
23  29  8
23  30  8
25  33  8
26  34  8
27  29  8
28  30  8
31  36  8
32  37  8
33  35  8
34  35  8
36  38  8
37  38  8
8  6  5
16  7  5

$$$$
1252391
  -OEChem-08172310442D

 50 55  0     1  0  0  0  0  0999 V2000
   12.2185   -3.5671    0.0000 Br  0  0  0  0  0  0  0  0  0  0  0  0
    7.5438    3.9337    0.0000 Cl  0  0  0  0  0  0  0  0  0  0  0  0
    8.5003   -2.1551    0.0000 O   0  0  0  0  0  0  0  0  0  0  0  0
    8.3374    0.5107    0.0000 O   0  0  0  0  0  0  0  0  0  0  0  0
    7.0547   -0.6532    0.0000 N   0  0  0  0  0  0  0  0  0  0  0  0
    4.5274    0.4710    0.0000 N   0  0  0  0  0  0  0  0  0  0  0  0
    6.3518    0.1155    0.0000 C   0  0  1  0  0  0  0  0  0  0  0  0
    5.3364   -0.1168    0.0000 C   0  0  0  0  0  0  0  0  0  0  0  0
    5.0274   -1.0678    0.0000 C   0  0  0  0  0  0  0  0  0  0  0  0
    5.7123   -1.8526    0.0000 C   0  0  0  0  0  0  0  0  0  0  0  0
    6.7328   -1.6439    0.0000 C   0  0  0  0  0  0  0  0  0  0  0  0
    4.0274   -1.0678    0.0000 C   0  0  0  0  0  0  0  0  0  0  0  0
    3.7183   -0.1168    0.0000 C   0  0  0  0  0  0  0  0  0  0  0  0
    6.6498    1.0700    0.0000 C   0  0  0  0  0  0  0  0  0  0  0  0
    8.0321   -0.4415    0.0000 C   0  0  0  0  0  0  0  0  0  0  0  0
    3.3424   -1.8526    0.0000 C   0  0  0  0  0  0  0  0  0  0  0  0
    2.7029    0.1155    0.0000 C   0  0  0  0  0  0  0  0  0  0  0  0
    5.9721    1.8054    0.0000 C   0  0  0  0  0  0  0  0  0  0  0  0
    7.6255    1.2892    0.0000 C   0  0  0  0  0  0  0  0  0  0  0  0
    8.7040   -1.1821    0.0000 C   0  0  0  0  0  0  0  0  0  0  0  0
    2.3219   -1.6439    0.0000 C   0  0  0  0  0  0  0  0  0  0  0  0
    2.0000   -0.6532    0.0000 C   0  0  0  0  0  0  0  0  0  0  0  0
    6.2701    2.7600    0.0000 C   0  0  0  0  0  0  0  0  0  0  0  0
    7.9235    2.2438    0.0000 C   0  0  0  0  0  0  0  0  0  0  0  0
    9.6922   -1.0735    0.0000 C   0  0  0  0  0  0  0  0  0  0  0  0
    7.2458    2.9792    0.0000 C   0  0  0  0  0  0  0  0  0  0  0  0
   10.1024   -1.9790    0.0000 C   0  0  0  0  0  0  0  0  0  0  0  0
    9.3618   -2.6510    0.0000 C   0  0  0  0  0  0  0  0  0  0  0  0
   11.0546   -2.2844    0.0000 C   0  0  0  0  0  0  0  0  0  0  0  0
    9.5735   -3.6284    0.0000 C   0  0  0  0  0  0  0  0  0  0  0  0
   11.2663   -3.2617    0.0000 C   0  0  0  0  0  0  0  0  0  0  0  0
   10.5257   -3.9337    0.0000 C   0  0  0  0  0  0  0  0  0  0  0  0
    6.9570    0.2502    0.0000 H   0  0  0  0  0  0  0  0  0  0  0  0
    5.1824   -2.1744    0.0000 H   0  0  0  0  0  0  0  0  0  0  0  0
    5.9387   -2.4298    0.0000 H   0  0  0  0  0  0  0  0  0  0  0  0
    6.7513   -2.2636    0.0000 H   0  0  0  0  0  0  0  0  0  0  0  0
    7.3466   -1.7317    0.0000 H   0  0  0  0  0  0  0  0  0  0  0  0
    4.5274    1.0910    0.0000 H   0  0  0  0  0  0  0  0  0  0  0  0
    3.5408   -2.4400    0.0000 H   0  0  0  0  0  0  0  0  0  0  0  0
    2.5182    0.7073    0.0000 H   0  0  0  0  0  0  0  0  0  0  0  0
    5.3672    1.6695    0.0000 H   0  0  0  0  0  0  0  0  0  0  0  0
    8.0456    0.8333    0.0000 H   0  0  0  0  0  0  0  0  0  0  0  0
    1.9088   -2.1062    0.0000 H   0  0  0  0  0  0  0  0  0  0  0  0
    1.3940   -0.5220    0.0000 H   0  0  0  0  0  0  0  0  0  0  0  0
    5.8499    3.2159    0.0000 H   0  0  0  0  0  0  0  0  0  0  0  0
    8.5284    2.3797    0.0000 H   0  0  0  0  0  0  0  0  0  0  0  0
    9.9992   -0.5349    0.0000 H   0  0  0  0  0  0  0  0  0  0  0  0
   11.5137   -1.8678    0.0000 H   0  0  0  0  0  0  0  0  0  0  0  0
    9.1143   -4.0450    0.0000 H   0  0  0  0  0  0  0  0  0  0  0  0
   10.6570   -4.5397    0.0000 H   0  0  0  0  0  0  0  0  0  0  0  0
  1 31  1  0  0  0  0
  2 26  1  0  0  0  0
  3 20  1  0  0  0  0
  3 28  1  0  0  0  0
  4 15  2  0  0  0  0
  5  7  1  0  0  0  0
  5 11  1  0  0  0  0
  5 15  1  0  0  0  0
  6  8  1  0  0  0  0
  6 13  1  0  0  0  0
  6 38  1  0  0  0  0
  7  8  1  0  0  0  0
  7 14  1  1  0  0  0
  7 33  1  0  0  0  0
  8  9  2  0  0  0  0
  9 10  1  0  0  0  0
  9 12  1  0  0  0  0
 10 11  1  0  0  0  0
 10 34  1  0  0  0  0
 10 35  1  0  0  0  0
 11 36  1  0  0  0  0
 11 37  1  0  0  0  0
 12 13  1  0  0  0  0
 12 16  2  0  0  0  0
 13 17  2  0  0  0  0
 14 18  2  0  0  0  0
 14 19  1  0  0  0  0
 15 20  1  0  0  0  0
 16 21  1  0  0  0  0
 16 39  1  0  0  0  0
 17 22  1  0  0  0  0
 17 40  1  0  0  0  0
 18 23  1  0  0  0  0
 18 41  1  0  0  0  0
 19 24  2  0  0  0  0
 19 42  1  0  0  0  0
 20 25  2  0  0  0  0
 21 22  2  0  0  0  0
 21 43  1  0  0  0  0
 22 44  1  0  0  0  0
 23 26  2  0  0  0  0
 23 45  1  0  0  0  0
 24 26  1  0  0  0  0
 24 46  1  0  0  0  0
 25 27  1  0  0  0  0
 25 47  1  0  0  0  0
 27 28  2  0  0  0  0
 27 29  1  0  0  0  0
 28 30  1  0  0  0  0
 29 31  2  0  0  0  0
 29 48  1  0  0  0  0
 30 32  2  0  0  0  0
 30 49  1  0  0  0  0
 31 32  1  0  0  0  0
 32 50  1  0  0  0  0
M  END
> <PUBCHEM_COMPOUND_CID>
1252391

> <PUBCHEM_COMPOUND_CANONICALIZED>
1

> <PUBCHEM_CACTVS_COMPLEXITY>
701

> <PUBCHEM_CACTVS_HBOND_ACCEPTOR>
2

> <PUBCHEM_CACTVS_HBOND_DONOR>
1

> <PUBCHEM_CACTVS_ROTATABLE_BOND>
2

> <PUBCHEM_CACTVS_SUBSKEYS>
AAADceB7MAAEEAAAAAAAAAAAAAAAAWJAAAA8YMEAAAAAAFgB/gAAHgJQAAABrC7BniQwxvPJlECoA6VyVAKCiCAlJyQImSH+bvgOZvLFt7+XOSjk1hHY65eY3+LuhBAAEAAKAAAIIAAgABQAAAAAAAAAAA==

> <PUBCHEM_IUPAC_OPENEYE_NAME>
(5-bromobenzofuran-2-yl)-[(1R)-1-(4-chlorophenyl)-1,3,4,9-tetrahydropyrido[3,4-b]indol-2-yl]methanone

> <PUBCHEM_IUPAC_CAS_NAME>
(5-bromo-2-benzofuranyl)-[(1R)-1-(4-chlorophenyl)-1,3,4,9-tetrahydropyrido[3,4-b]indol-2-yl]methanone

> <PUBCHEM_IUPAC_NAME_MARKUP>
(5-bromo-1-benzofuran-2-yl)-[(1<I>R</I>)-1-(4-chlorophenyl)-1,3,4,9-tetrahydropyrido[3,4-b]indol-2-yl]methanone

> <PUBCHEM_IUPAC_NAME>
(5-bromo-1-benzofuran-2-yl)-[(1R)-1-(4-chlorophenyl)-1,3,4,9-tetrahydropyrido[3,4-b]indol-2-yl]methanone

> <PUBCHEM_IUPAC_SYSTEMATIC_NAME>
(5-bromanyl-1-benzofuran-2-yl)-[(1R)-1-(4-chlorophenyl)-1,3,4,9-tetrahydropyrido[3,4-b]indol-2-yl]methanone

> <PUBCHEM_IUPAC_TRADITIONAL_NAME>
(5-bromobenzofuran-2-yl)-[(1R)-1-(4-chlorophenyl)-1,3,4,9-tetrahydro-beta-carbolin-2-yl]methanone

> <PUBCHEM_IUPAC_INCHI>
InChI=1S/C26H18BrClN2O2/c27-17-7-10-22-16(13-17)14-23(32-22)26(31)30-12-11-20-19-3-1-2-4-21(19)29-24(20)25(30)15-5-8-18(28)9-6-15/h1-10,13-14,25,29H,11-12H2/t25-/m1/s1

> <PUBCHEM_IUPAC_INCHIKEY>
HZSCLSLYKFCGEO-RUZDIDTESA-N

> <PUBCHEM_XLOGP3_AA>
6.8

> <PUBCHEM_EXACT_MASS>
504.02402

> <PUBCHEM_MOLECULAR_FORMULA>
C26H18BrClN2O2

> <PUBCHEM_MOLECULAR_WEIGHT>
505.8

> <PUBCHEM_OPENEYE_CAN_SMILES>
C1CN(C(C2=C1C3=CC=CC=C3N2)C4=CC=C(C=C4)Cl)C(=O)C5=CC6=C(O5)C=CC(=C6)Br

> <PUBCHEM_OPENEYE_ISO_SMILES>
C1CN([C@@H](C2=C1C3=CC=CC=C3N2)C4=CC=C(C=C4)Cl)C(=O)C5=CC6=C(O5)C=CC(=C6)Br

> <PUBCHEM_CACTVS_TPSA>
49.2

> <PUBCHEM_MONOISOTOPIC_WEIGHT>
504.02402

> <PUBCHEM_TOTAL_CHARGE>
0

> <PUBCHEM_HEAVY_ATOM_COUNT>
32

> <PUBCHEM_ATOM_DEF_STEREO_COUNT>
1

> <PUBCHEM_ATOM_UDEF_STEREO_COUNT>
0

> <PUBCHEM_BOND_DEF_STEREO_COUNT>
0

> <PUBCHEM_BOND_UDEF_STEREO_COUNT>
0

> <PUBCHEM_ISOTOPIC_ATOM_COUNT>
0

> <PUBCHEM_COMPONENT_COUNT>
1

> <PUBCHEM_CACTVS_TAUTO_COUNT>
-1

> <PUBCHEM_COORDINATE_TYPE>
1
5
255

> <PUBCHEM_BONDANNOTATIONS>
12  13  8
12  16  8
13  17  8
14  18  8
14  19  8
16  21  8
17  22  8
18  23  8
19  24  8
20  25  8
21  22  8
23  26  8
24  26  8
25  27  8
27  28  8
27  29  8
28  30  8
29  31  8
3  20  8
3  28  8
30  32  8
31  32  8
6  13  8
6  8  8
7  14  5
8  9  8
9  12  8

$$$$
46955235
  -OEChem-08172310442D

 56 60  0     1  0  0  0  0  0999 V2000
    4.7931   -4.5491    0.0000 F   0  0  0  0  0  0  0  0  0  0  0  0
    6.5251   -5.5491    0.0000 F   0  0  0  0  0  0  0  0  0  0  0  0
    4.7931    2.4509    0.0000 O   0  0  0  0  0  0  0  0  0  0  0  0
    7.3912    3.9509    0.0000 O   0  0  0  0  0  0  0  0  0  0  0  0
    7.3912   -1.0491    0.0000 O   0  0  0  0  0  0  0  0  0  0  0  0
    5.6591   -0.0491    0.0000 N   0  0  0  0  0  0  0  0  0  0  0  0
    5.6591    1.9509    0.0000 C   0  0  0  0  0  0  0  0  0  0  0  0
    4.7931    1.4509    0.0000 C   0  0  0  0  0  0  0  0  0  0  0  0
    6.5251    1.4509    0.0000 C   0  0  0  0  0  0  0  0  0  0  0  0
    6.5251    2.4509    0.0000 C   0  0  0  0  0  0  0  0  0  0  0  0
    4.7931    0.4509    0.0000 C   0  0  0  0  0  0  0  0  0  0  0  0
    6.5251    0.4509    0.0000 C   0  0  0  0  0  0  0  0  0  0  0  0
    6.5251    3.4509    0.0000 C   0  0  3  0  0  0  0  0  0  0  0  0
    5.6591    3.9509    0.0000 C   0  0  0  0  0  0  0  0  0  0  0  0
    4.7931    3.4509    0.0000 C   0  0  0  0  0  0  0  0  0  0  0  0
    5.6591   -1.0491    0.0000 C   0  0  0  0  0  0  0  0  0  0  0  0
    6.5251   -1.5491    0.0000 C   0  0  3  0  0  0  0  0  0  0  0  0
    3.8831    3.9578    0.0000 C   0  0  0  0  0  0  0  0  0  0  0  0
    5.6752    4.9924    0.0000 C   0  0  0  0  0  0  0  0  0  0  0  0
    3.8751    4.9994    0.0000 C   0  0  0  0  0  0  0  0  0  0  0  0
    4.7771    5.5202    0.0000 C   0  0  0  0  0  0  0  0  0  0  0  0
    6.5251   -2.5491    0.0000 C   0  0  0  0  0  0  0  0  0  0  0  0
    2.9562    3.3937    0.0000 C   0  0  0  0  0  0  0  0  0  0  0  0
    2.9396    5.5491    0.0000 C   0  0  0  0  0  0  0  0  0  0  0  0
    2.0084    3.9216    0.0000 C   0  0  0  0  0  0  0  0  0  0  0  0
    5.6591   -3.0491    0.0000 C   0  0  0  0  0  0  0  0  0  0  0  0
    7.3912   -3.0491    0.0000 C   0  0  0  0  0  0  0  0  0  0  0  0
    2.0000    5.0066    0.0000 C   0  0  0  0  0  0  0  0  0  0  0  0
    5.6591   -4.0491    0.0000 C   0  0  0  0  0  0  0  0  0  0  0  0
    7.3912   -4.0491    0.0000 C   0  0  0  0  0  0  0  0  0  0  0  0
    6.5251   -4.5491    0.0000 C   0  0  0  0  0  0  0  0  0  0  0  0
    4.5810    2.0335    0.0000 H   0  0  0  0  0  0  0  0  0  0  0  0
    4.1825    1.3432    0.0000 H   0  0  0  0  0  0  0  0  0  0  0  0
    7.1357    1.3432    0.0000 H   0  0  0  0  0  0  0  0  0  0  0  0
    6.7372    2.0335    0.0000 H   0  0  0  0  0  0  0  0  0  0  0  0
    6.7372    1.8683    0.0000 H   0  0  0  0  0  0  0  0  0  0  0  0
    7.1357    2.5586    0.0000 H   0  0  0  0  0  0  0  0  0  0  0  0
    4.1825    0.5586    0.0000 H   0  0  0  0  0  0  0  0  0  0  0  0
    4.5810   -0.1317    0.0000 H   0  0  0  0  0  0  0  0  0  0  0  0
    6.7372   -0.1317    0.0000 H   0  0  0  0  0  0  0  0  0  0  0  0
    7.1357    0.5586    0.0000 H   0  0  0  0  0  0  0  0  0  0  0  0
    6.5251    4.0709    0.0000 H   0  0  0  0  0  0  0  0  0  0  0  0
    5.0485   -0.9414    0.0000 H   0  0  0  0  0  0  0  0  0  0  0  0
    5.4471   -1.6317    0.0000 H   0  0  0  0  0  0  0  0  0  0  0  0
    6.5251   -0.9291    0.0000 H   0  0  0  0  0  0  0  0  0  0  0  0
    6.2157    5.2962    0.0000 H   0  0  0  0  0  0  0  0  0  0  0  0
    7.9281    3.6409    0.0000 H   0  0  0  0  0  0  0  0  0  0  0  0
    4.7795    6.1402    0.0000 H   0  0  0  0  0  0  0  0  0  0  0  0
    2.9682    2.7738    0.0000 H   0  0  0  0  0  0  0  0  0  0  0  0
    2.9420    6.1691    0.0000 H   0  0  0  0  0  0  0  0  0  0  0  0
    7.9281   -1.3591    0.0000 H   0  0  0  0  0  0  0  0  0  0  0  0
    1.4750    3.6054    0.0000 H   0  0  0  0  0  0  0  0  0  0  0  0
    5.1222   -2.7391    0.0000 H   0  0  0  0  0  0  0  0  0  0  0  0
    7.9281   -2.7391    0.0000 H   0  0  0  0  0  0  0  0  0  0  0  0
    1.4619    5.3145    0.0000 H   0  0  0  0  0  0  0  0  0  0  0  0
    7.9281   -4.3591    0.0000 H   0  0  0  0  0  0  0  0  0  0  0  0
  1 29  1  0  0  0  0
  2 31  1  0  0  0  0
  3  7  1  0  0  0  0
  3 15  1  0  0  0  0
  4 13  1  0  0  0  0
  4 47  1  0  0  0  0
  5 17  1  0  0  0  0
  5 51  1  0  0  0  0
  6 11  1  0  0  0  0
  6 12  1  0  0  0  0
  6 16  1  0  0  0  0
  7  8  1  0  0  0  0
  7  9  1  0  0  0  0
  7 10  1  0  0  0  0
  8 11  1  0  0  0  0
  8 32  1  0  0  0  0
  8 33  1  0  0  0  0
  9 12  1  0  0  0  0
  9 34  1  0  0  0  0
  9 35  1  0  0  0  0
 10 13  1  0  0  0  0
 10 36  1  0  0  0  0
 10 37  1  0  0  0  0
 11 38  1  0  0  0  0
 11 39  1  0  0  0  0
 12 40  1  0  0  0  0
 12 41  1  0  0  0  0
 13 14  1  0  0  0  0
 13 42  1  0  0  0  0
 14 15  2  0  0  0  0
 14 19  1  0  0  0  0
 15 18  1  0  0  0  0
 16 17  1  0  0  0  0
 16 43  1  0  0  0  0
 16 44  1  0  0  0  0
 17 22  1  0  0  0  0
 17 45  1  0  0  0  0
 18 20  1  0  0  0  0
 18 23  2  0  0  0  0
 19 21  2  0  0  0  0
 19 46  1  0  0  0  0
 20 21  1  0  0  0  0
 20 24  2  0  0  0  0
 21 48  1  0  0  0  0
 22 26  2  0  0  0  0
 22 27  1  0  0  0  0
 23 25  1  0  0  0  0
 23 49  1  0  0  0  0
 24 28  1  0  0  0  0
 24 50  1  0  0  0  0
 25 28  2  0  0  0  0
 25 52  1  0  0  0  0
 26 29  1  0  0  0  0
 26 53  1  0  0  0  0
 27 30  2  0  0  0  0
 27 54  1  0  0  0  0
 28 55  1  0  0  0  0
 29 31  2  0  0  0  0
 30 31  1  0  0  0  0
 30 56  1  0  0  0  0
M  END
> <PUBCHEM_COMPOUND_CID>
46955235

> <PUBCHEM_COMPOUND_CANONICALIZED>
1

> <PUBCHEM_CACTVS_COMPLEXITY>
614

> <PUBCHEM_CACTVS_HBOND_ACCEPTOR>
6

> <PUBCHEM_CACTVS_HBOND_DONOR>
2

> <PUBCHEM_CACTVS_ROTATABLE_BOND>
3

> <PUBCHEM_CACTVS_SUBSKEYS>
AAADceB6MYAAAAAAAAAAAAAAAAAAAAAAAAA8aMECAAAAAADRVAAAHwAACAAADFThmA4wBsMABgCAAiBCAAACCAAgIAAIiAAMCIgONyKEsRuGeCCnwBGYuAeQ0PIOwAADAAAYAACAAAYAADAAAAAAAAAAAA==

> <PUBCHEM_IUPAC_OPENEYE_NAME>
1'-[2-(3,4-difluorophenyl)-2-hydroxy-ethyl]spiro[3,4-dihydrobenzo[h]chromene-2,4'-piperidine]-4-ol

> <PUBCHEM_IUPAC_CAS_NAME>
1'-[2-(3,4-difluorophenyl)-2-hydroxyethyl]-4-spiro[3,4-dihydrobenzo[h][1]benzopyran-2,4'-piperidine]ol

> <PUBCHEM_IUPAC_NAME_MARKUP>
1&apos;-[2-(3,4-difluorophenyl)-2-hydroxyethyl]spiro[3,4-dihydrobenzo[h]chromene-2,4&apos;-piperidine]-4-ol

> <PUBCHEM_IUPAC_NAME>
1'-[2-(3,4-difluorophenyl)-2-hydroxyethyl]spiro[3,4-dihydrobenzo[h]chromene-2,4'-piperidine]-4-ol

> <PUBCHEM_IUPAC_SYSTEMATIC_NAME>
1'-[2-[3,4-bis(fluoranyl)phenyl]-2-oxidanyl-ethyl]spiro[3,4-dihydrobenzo[h]chromene-2,4'-piperidine]-4-ol

> <PUBCHEM_IUPAC_TRADITIONAL_NAME>
1'-[2-(3,4-difluorophenyl)-2-hydroxy-ethyl]spiro[3,4-dihydrobenzo[h]chromene-2,4'-piperidine]-4-ol

> <PUBCHEM_IUPAC_INCHI>
InChI=1S/C25H25F2NO3/c26-20-8-6-17(13-21(20)27)23(30)15-28-11-9-25(10-12-28)14-22(29)19-7-5-16-3-1-2-4-18(16)24(19)31-25/h1-8,13,22-23,29-30H,9-12,14-15H2

> <PUBCHEM_IUPAC_INCHIKEY>
PILGVBYEWDKGIX-UHFFFAOYSA-N

> <PUBCHEM_XLOGP3_AA>
3.9

> <PUBCHEM_EXACT_MASS>
425.18024998

> <PUBCHEM_MOLECULAR_FORMULA>
C25H25F2NO3

> <PUBCHEM_MOLECULAR_WEIGHT>
425.5

> <PUBCHEM_OPENEYE_CAN_SMILES>
C1CN(CCC12CC(C3=C(O2)C4=CC=CC=C4C=C3)O)CC(C5=CC(=C(C=C5)F)F)O

> <PUBCHEM_OPENEYE_ISO_SMILES>
C1CN(CCC12CC(C3=C(O2)C4=CC=CC=C4C=C3)O)CC(C5=CC(=C(C=C5)F)F)O

> <PUBCHEM_CACTVS_TPSA>
52.9

> <PUBCHEM_MONOISOTOPIC_WEIGHT>
425.18024998

> <PUBCHEM_TOTAL_CHARGE>
0

> <PUBCHEM_HEAVY_ATOM_COUNT>
31

> <PUBCHEM_ATOM_DEF_STEREO_COUNT>
0

> <PUBCHEM_ATOM_UDEF_STEREO_COUNT>
2

> <PUBCHEM_BOND_DEF_STEREO_COUNT>
0

> <PUBCHEM_BOND_UDEF_STEREO_COUNT>
0

> <PUBCHEM_ISOTOPIC_ATOM_COUNT>
0

> <PUBCHEM_COMPONENT_COUNT>
1

> <PUBCHEM_CACTVS_TAUTO_COUNT>
-1

> <PUBCHEM_COORDINATE_TYPE>
1
5
255

> <PUBCHEM_BONDANNOTATIONS>
14  15  8
14  19  8
15  18  8
18  20  8
18  23  8
19  21  8
20  21  8
20  24  8
22  26  8
22  27  8
23  25  8
24  28  8
25  28  8
26  29  8
27  30  8
29  31  8
30  31  8
13  4  3
17  5  3

$$$$
163196446
  -OEChem-08172310442D

 51 53  0     0  0  0  0  0  0999 V2000
   10.5311    9.7825    0.0000 Cl  0  0  0  0  0  0  0  0  0  0  0  0
    9.1758   11.2532    0.0000 Cl  0  0  0  0  0  0  0  0  0  0  0  0
    0.0000    5.3734    0.0000 Cl  0  0  0  0  0  0  0  0  0  0  0  0
   10.0100    5.1341    0.0000 O   0  0  0  0  0  0  0  0  0  0  0  0
    6.1593    7.7905    0.0000 N   0  0  0  0  0  0  0  0  0  0  0  0
    8.6867    6.6663    0.0000 N   0  0  0  0  0  0  0  0  0  0  0  0
    8.7184    3.9801    0.0000 N   0  0  0  0  0  0  0  0  0  0  0  0
    9.7382    1.5388    0.0000 N   0  0  0  0  0  0  0  0  0  0  0  0
    6.6593    6.2517    0.0000 C   0  0  0  0  0  0  0  0  0  0  0  0
    6.9684    7.2027    0.0000 C   0  0  0  0  0  0  0  0  0  0  0  0
    5.6593    6.2517    0.0000 C   0  0  0  0  0  0  0  0  0  0  0  0
    5.3503    7.2027    0.0000 C   0  0  0  0  0  0  0  0  0  0  0  0
    7.9838    7.4350    0.0000 C   0  0  0  0  0  0  0  0  0  0  0  0
    4.3349    7.4350    0.0000 C   0  0  0  0  0  0  0  0  0  0  0  0
    7.3443    5.4669    0.0000 C   0  0  0  0  0  0  0  0  0  0  0  0
    4.9744    5.4669    0.0000 C   0  0  0  0  0  0  0  0  0  0  0  0
    8.3648    5.6756    0.0000 C   0  0  0  0  0  0  0  0  0  0  0  0
    8.2818    8.3896    0.0000 C   0  0  0  0  0  0  0  0  0  0  0  0
    3.6320    6.6663    0.0000 C   0  0  0  0  0  0  0  0  0  0  0  0
    3.9538    5.6756    0.0000 C   0  0  0  0  0  0  0  0  0  0  0  0
    4.0369    8.3896    0.0000 C   0  0  0  0  0  0  0  0  0  0  0  0
    9.0311    4.9299    0.0000 C   0  0  0  0  0  0  0  0  0  0  0  0
    9.2574    8.6088    0.0000 C   0  0  0  0  0  0  0  0  0  0  0  0
    7.6041    9.1249    0.0000 C   0  0  0  0  0  0  0  0  0  0  0  0
    9.3846    3.2344    0.0000 C   0  0  0  0  0  0  0  0  0  0  0  0
    9.0720    2.2845    0.0000 C   0  0  0  0  0  0  0  0  0  0  0  0
    9.5554    9.5633    0.0000 C   0  0  0  0  0  0  0  0  0  0  0  0
    7.9021   10.0795    0.0000 C   0  0  0  0  0  0  0  0  0  0  0  0
    8.8778   10.2987    0.0000 C   0  0  0  0  0  0  0  0  0  0  0  0
    9.4256    0.5889    0.0000 C   0  0  0  0  0  0  0  0  0  0  0  0
    6.1593    8.4105    0.0000 H   0  0  0  0  0  0  0  0  0  0  0  0
    7.1459    4.8795    0.0000 H   0  0  0  0  0  0  0  0  0  0  0  0
    5.1728    4.8795    0.0000 H   0  0  0  0  0  0  0  0  0  0  0  0
    3.0260    6.7975    0.0000 H   0  0  0  0  0  0  0  0  0  0  0  0
    3.5408    5.2133    0.0000 H   0  0  0  0  0  0  0  0  0  0  0  0
    4.6287    8.5743    0.0000 H   0  0  0  0  0  0  0  0  0  0  0  0
    3.8521    8.9814    0.0000 H   0  0  0  0  0  0  0  0  0  0  0  0
    3.4451    8.2048    0.0000 H   0  0  0  0  0  0  0  0  0  0  0  0
    9.6776    8.1528    0.0000 H   0  0  0  0  0  0  0  0  0  0  0  0
    6.9992    8.9890    0.0000 H   0  0  0  0  0  0  0  0  0  0  0  0
    8.1114    3.8535    0.0000 H   0  0  0  0  0  0  0  0  0  0  0  0
    9.9310    2.9412    0.0000 H   0  0  0  0  0  0  0  0  0  0  0  0
    9.7682    3.7214    0.0000 H   0  0  0  0  0  0  0  0  0  0  0  0
    8.5257    2.5777    0.0000 H   0  0  0  0  0  0  0  0  0  0  0  0
    8.6884    1.7974    0.0000 H   0  0  0  0  0  0  0  0  0  0  0  0
    7.4819   10.5354    0.0000 H   0  0  0  0  0  0  0  0  0  0  0  0
   10.3452    1.6653    0.0000 H   0  0  0  0  0  0  0  0  0  0  0  0
    8.8366    0.7828    0.0000 H   0  0  0  0  0  0  0  0  0  0  0  0
    9.2317    0.0000    0.0000 H   0  0  0  0  0  0  0  0  0  0  0  0
   10.0145    0.3950    0.0000 H   0  0  0  0  0  0  0  0  0  0  0  0
    1.0000    5.3734    0.0000 H   0  0  0  0  0  0  0  0  0  0  0  0
  1 27  1  0  0  0  0
  2 29  1  0  0  0  0
  3 51  1  0  0  0  0
  4 22  2  0  0  0  0
  5 10  1  0  0  0  0
  5 12  1  0  0  0  0
  5 31  1  0  0  0  0
  6 13  1  0  0  0  0
  6 17  2  0  0  0  0
  7 22  1  0  0  0  0
  7 25  1  0  0  0  0
  7 41  1  0  0  0  0
  8 26  1  0  0  0  0
  8 30  1  0  0  0  0
  8 47  1  0  0  0  0
  9 10  1  0  0  0  0
  9 11  1  0  0  0  0
  9 15  2  0  0  0  0
 10 13  2  0  0  0  0
 11 12  1  0  0  0  0
 11 16  2  0  0  0  0
 12 14  2  0  0  0  0
 13 18  1  0  0  0  0
 14 19  1  0  0  0  0
 14 21  1  0  0  0  0
 15 17  1  0  0  0  0
 15 32  1  0  0  0  0
 16 20  1  0  0  0  0
 16 33  1  0  0  0  0
 17 22  1  0  0  0  0
 18 23  2  0  0  0  0
 18 24  1  0  0  0  0
 19 20  2  0  0  0  0
 19 34  1  0  0  0  0
 20 35  1  0  0  0  0
 21 36  1  0  0  0  0
 21 37  1  0  0  0  0
 21 38  1  0  0  0  0
 23 27  1  0  0  0  0
 23 39  1  0  0  0  0
 24 28  2  0  0  0  0
 24 40  1  0  0  0  0
 25 26  1  0  0  0  0
 25 42  1  0  0  0  0
 25 43  1  0  0  0  0
 26 44  1  0  0  0  0
 26 45  1  0  0  0  0
 27 29  2  0  0  0  0
 28 29  1  0  0  0  0
 28 46  1  0  0  0  0
 30 48  1  0  0  0  0
 30 49  1  0  0  0  0
 30 50  1  0  0  0  0
M  END
> <PUBCHEM_COMPOUND_CID>
163196446

> <PUBCHEM_COMPOUND_CANONICALIZED>
1

> <PUBCHEM_CACTVS_COMPLEXITY>
579

> <PUBCHEM_CACTVS_HBOND_ACCEPTOR>
3

> <PUBCHEM_CACTVS_HBOND_DONOR>
4

> <PUBCHEM_CACTVS_ROTATABLE_BOND>
5

> <PUBCHEM_CACTVS_SUBSKEYS>
AAADceB7oAAGAAAAAAAAAAAAAAAAAWAAAAA8YIAAAAAAAFgB/gAAHgIQAAAADArBniQywPLJkACoAyVyVACCgCQnFyAIm+G4dtgIYPLBl7GUIQhglgDIyYcYicCehAACIAACAAQIAARAAAQACAAAAAAAAA==

> <PUBCHEM_IUPAC_OPENEYE_NAME>
1-(3,4-dichlorophenyl)-8-methyl-N-[2-(methylamino)ethyl]-9H-pyrido[3,4-b]indole-3-carboxamide;hydrochloride

> <PUBCHEM_IUPAC_CAS_NAME>
1-(3,4-dichlorophenyl)-8-methyl-N-[2-(methylamino)ethyl]-9H-pyrido[3,4-b]indole-3-carboxamide;hydrochloride

> <PUBCHEM_IUPAC_NAME_MARKUP>
1-(3,4-dichlorophenyl)-8-methyl-<I>N</I>-[2-(methylamino)ethyl]-9<I>H</I>-pyrido[3,4-b]indole-3-carboxamide;hydrochloride

> <PUBCHEM_IUPAC_NAME>
1-(3,4-dichlorophenyl)-8-methyl-N-[2-(methylamino)ethyl]-9H-pyrido[3,4-b]indole-3-carboxamide;hydrochloride

> <PUBCHEM_IUPAC_SYSTEMATIC_NAME>
1-(3,4-dichlorophenyl)-8-methyl-N-[2-(methylamino)ethyl]-9H-pyrido[3,4-b]indole-3-carboxamide;hydrochloride

> <PUBCHEM_IUPAC_TRADITIONAL_NAME>
1-(3,4-dichlorophenyl)-8-methyl-N-[2-(methylamino)ethyl]-9H-beta-carboline-3-carboxamide;hydrochloride

> <PUBCHEM_IUPAC_INCHI>
InChI=1S/C22H20Cl2N4O.ClH/c1-12-4-3-5-14-15-11-18(22(29)26-9-8-25-2)27-20(21(15)28-19(12)14)13-6-7-16(23)17(24)10-13;/h3-7,10-11,25,28H,8-9H2,1-2H3,(H,26,29);1H

> <PUBCHEM_IUPAC_INCHIKEY>
VFUXYPUQCPMVGZ-UHFFFAOYSA-N

> <PUBCHEM_EXACT_MASS>
462.078094

> <PUBCHEM_MOLECULAR_FORMULA>
C22H21Cl3N4O

> <PUBCHEM_MOLECULAR_WEIGHT>
463.8

> <PUBCHEM_OPENEYE_CAN_SMILES>
CC1=C2C(=CC=C1)C3=CC(=NC(=C3N2)C4=CC(=C(C=C4)Cl)Cl)C(=O)NCCNC.Cl

> <PUBCHEM_OPENEYE_ISO_SMILES>
CC1=C2C(=CC=C1)C3=CC(=NC(=C3N2)C4=CC(=C(C=C4)Cl)Cl)C(=O)NCCNC.Cl

> <PUBCHEM_CACTVS_TPSA>
69.8

> <PUBCHEM_MONOISOTOPIC_WEIGHT>
462.078094

> <PUBCHEM_TOTAL_CHARGE>
0

> <PUBCHEM_HEAVY_ATOM_COUNT>
30

> <PUBCHEM_ATOM_DEF_STEREO_COUNT>
0

> <PUBCHEM_ATOM_UDEF_STEREO_COUNT>
0

> <PUBCHEM_BOND_DEF_STEREO_COUNT>
0

> <PUBCHEM_BOND_UDEF_STEREO_COUNT>
0

> <PUBCHEM_ISOTOPIC_ATOM_COUNT>
0

> <PUBCHEM_COMPONENT_COUNT>
2

> <PUBCHEM_CACTVS_TAUTO_COUNT>
-1

> <PUBCHEM_COORDINATE_TYPE>
1
5
255

> <PUBCHEM_BONDANNOTATIONS>
10  13  8
11  12  8
11  16  8
12  14  8
14  19  8
15  17  8
16  20  8
18  23  8
18  24  8
19  20  8
23  27  8
24  28  8
27  29  8
28  29  8
5  10  8
5  12  8
6  13  8
6  17  8
9  10  8
9  11  8
9  15  8

$$$$
162640918
  -OEChem-08172310442D

 37 39  0     1  0  0  0  0  0999 V2000
    6.3479    4.1646    0.0000 Br  0  0  0  0  0  0  0  0  0  0  0  0
    3.8090    1.1444    0.0000 O   0  0  0  0  0  0  0  0  0  0  0  0
    3.7788    3.8556    0.0000 O   0  0  0  0  0  0  0  0  0  0  0  0
    2.5000    2.0955    0.0000 N   0  0  0  0  0  0  0  0  0  0  0  0
    2.1910    1.1444    0.0000 N   0  0  0  0  0  0  0  0  0  0  0  0
    4.5878    4.4434    0.0000 N   0  0  0  0  0  0  0  0  0  0  0  0
    3.0000   -3.4434    0.0000 C   0  0  0  0  0  0  0  0  0  0  0  0
    3.0000   -2.4434    0.0000 C   0  0  0  0  0  0  0  0  0  0  0  0
    3.0000   -4.4434    0.0000 C   0  0  0  0  0  0  0  0  0  0  0  0
    2.0000   -3.4434    0.0000 C   0  0  0  0  0  0  0  0  0  0  0  0
    4.0000   -3.4434    0.0000 C   0  0  0  0  0  0  0  0  0  0  0  0
    3.8660   -1.9434    0.0000 C   0  0  0  0  0  0  0  0  0  0  0  0
    2.1340   -1.9434    0.0000 C   0  0  0  0  0  0  0  0  0  0  0  0
    4.0878    2.9045    0.0000 C   0  0  3  0  0  0  0  0  0  0  0  0
    3.0000   -0.4434    0.0000 C   0  0  0  0  0  0  0  0  0  0  0  0
    3.8660   -0.9434    0.0000 C   0  0  0  0  0  0  0  0  0  0  0  0
    2.1340   -0.9434    0.0000 C   0  0  0  0  0  0  0  0  0  0  0  0
    5.0878    2.9045    0.0000 C   0  0  0  0  0  0  0  0  0  0  0  0
    3.5000    2.0955    0.0000 C   0  0  0  0  0  0  0  0  0  0  0  0
    3.0000    0.5566    0.0000 C   0  0  0  0  0  0  0  0  0  0  0  0
    5.3968    3.8556    0.0000 C   0  0  0  0  0  0  0  0  0  0  0  0
    2.3800   -4.4434    0.0000 H   0  0  0  0  0  0  0  0  0  0  0  0
    3.0000   -5.0634    0.0000 H   0  0  0  0  0  0  0  0  0  0  0  0
    3.6200   -4.4434    0.0000 H   0  0  0  0  0  0  0  0  0  0  0  0
    2.0000   -2.8234    0.0000 H   0  0  0  0  0  0  0  0  0  0  0  0
    1.3800   -3.4434    0.0000 H   0  0  0  0  0  0  0  0  0  0  0  0
    2.0000   -4.0634    0.0000 H   0  0  0  0  0  0  0  0  0  0  0  0
    4.0000   -4.0634    0.0000 H   0  0  0  0  0  0  0  0  0  0  0  0
    4.6200   -3.4434    0.0000 H   0  0  0  0  0  0  0  0  0  0  0  0
    4.0000   -2.8234    0.0000 H   0  0  0  0  0  0  0  0  0  0  0  0
    4.4030   -2.2534    0.0000 H   0  0  0  0  0  0  0  0  0  0  0  0
    1.5970   -2.2534    0.0000 H   0  0  0  0  0  0  0  0  0  0  0  0
    3.4754    3.0015    0.0000 H   0  0  0  0  0  0  0  0  0  0  0  0
    4.4030   -0.6334    0.0000 H   0  0  0  0  0  0  0  0  0  0  0  0
    1.5970   -0.6334    0.0000 H   0  0  0  0  0  0  0  0  0  0  0  0
    5.0230    2.2879    0.0000 H   0  0  0  0  0  0  0  0  0  0  0  0
    5.6942    2.7756    0.0000 H   0  0  0  0  0  0  0  0  0  0  0  0
  1 21  1  0  0  0  0
  2 19  1  0  0  0  0
  2 20  1  0  0  0  0
  3  6  1  0  0  0  0
  3 14  1  0  0  0  0
  4  5  1  0  0  0  0
  4 19  2  0  0  0  0
  5 20  2  0  0  0  0
  6 21  2  0  0  0  0
  7  8  1  0  0  0  0
  7  9  1  0  0  0  0
  7 10  1  0  0  0  0
  7 11  1  0  0  0  0
  8 12  2  0  0  0  0
  8 13  1  0  0  0  0
  9 22  1  0  0  0  0
  9 23  1  0  0  0  0
  9 24  1  0  0  0  0
 10 25  1  0  0  0  0
 10 26  1  0  0  0  0
 10 27  1  0  0  0  0
 11 28  1  0  0  0  0
 11 29  1  0  0  0  0
 11 30  1  0  0  0  0
 12 16  1  0  0  0  0
 12 31  1  0  0  0  0
 13 17  2  0  0  0  0
 13 32  1  0  0  0  0
 14 18  1  0  0  0  0
 14 19  1  0  0  0  0
 14 33  1  0  0  0  0
 15 16  2  0  0  0  0
 15 17  1  0  0  0  0
 15 20  1  0  0  0  0
 16 34  1  0  0  0  0
 17 35  1  0  0  0  0
 18 21  1  0  0  0  0
 18 36  1  0  0  0  0
 18 37  1  0  0  0  0
M  END
> <PUBCHEM_COMPOUND_CID>
162640918

> <PUBCHEM_COMPOUND_CANONICALIZED>
1

> <PUBCHEM_CACTVS_COMPLEXITY>
402

> <PUBCHEM_CACTVS_HBOND_ACCEPTOR>
5

> <PUBCHEM_CACTVS_HBOND_DONOR>
0

> <PUBCHEM_CACTVS_ROTATABLE_BOND>
3

> <PUBCHEM_CACTVS_SUBSKEYS>
AAADceBzMAAAEAAAAAAAAAAAAAAAAWIAAAAwAAAAAAAAAAABwAAAHgBMAAABDhShmgIyAIAQBECqAiFyEAaSAAAsAAAaiCFwDPgLJrKAtRmKMQBkyAEKqYeYyPCPwAAAAAAAAACAAAAAAAAAAAAAAAAAAA==

> <PUBCHEM_IUPAC_OPENEYE_NAME>
2-(3-bromo-4,5-dihydroisoxazol-5-yl)-5-(4-tert-butylphenyl)-1,3,4-oxadiazole

> <PUBCHEM_IUPAC_CAS_NAME>
2-(3-bromo-4,5-dihydroisoxazol-5-yl)-5-(4-tert-butylphenyl)-1,3,4-oxadiazole

> <PUBCHEM_IUPAC_NAME_MARKUP>
2-(3-bromo-4,5-dihydro-1,2-oxazol-5-yl)-5-(4-<I>tert</I>-butylphenyl)-1,3,4-oxadiazole

> <PUBCHEM_IUPAC_NAME>
2-(3-bromo-4,5-dihydro-1,2-oxazol-5-yl)-5-(4-tert-butylphenyl)-1,3,4-oxadiazole

> <PUBCHEM_IUPAC_SYSTEMATIC_NAME>
2-(3-bromanyl-4,5-dihydro-1,2-oxazol-5-yl)-5-(4-tert-butylphenyl)-1,3,4-oxadiazole

> <PUBCHEM_IUPAC_TRADITIONAL_NAME>
2-(3-bromo-2-isoxazolin-5-yl)-5-(4-tert-butylphenyl)-1,3,4-oxadiazole

> <PUBCHEM_IUPAC_INCHI>
InChI=1S/C15H16BrN3O2/c1-15(2,3)10-6-4-9(5-7-10)13-17-18-14(20-13)11-8-12(16)19-21-11/h4-7,11H,8H2,1-3H3

> <PUBCHEM_IUPAC_INCHIKEY>
AEOBOORNXVKNNX-UHFFFAOYSA-N

> <PUBCHEM_XLOGP3_AA>
3.7

> <PUBCHEM_EXACT_MASS>
349.04259

> <PUBCHEM_MOLECULAR_FORMULA>
C15H16BrN3O2

> <PUBCHEM_MOLECULAR_WEIGHT>
350.21

> <PUBCHEM_OPENEYE_CAN_SMILES>
CC(C)(C)C1=CC=C(C=C1)C2=NN=C(O2)C3CC(=NO3)Br

> <PUBCHEM_OPENEYE_ISO_SMILES>
CC(C)(C)C1=CC=C(C=C1)C2=NN=C(O2)C3CC(=NO3)Br

> <PUBCHEM_CACTVS_TPSA>
60.5

> <PUBCHEM_MONOISOTOPIC_WEIGHT>
349.04259

> <PUBCHEM_TOTAL_CHARGE>
0

> <PUBCHEM_HEAVY_ATOM_COUNT>
21

> <PUBCHEM_ATOM_DEF_STEREO_COUNT>
0

> <PUBCHEM_ATOM_UDEF_STEREO_COUNT>
1

> <PUBCHEM_BOND_DEF_STEREO_COUNT>
0

> <PUBCHEM_BOND_UDEF_STEREO_COUNT>
0

> <PUBCHEM_ISOTOPIC_ATOM_COUNT>
0

> <PUBCHEM_COMPONENT_COUNT>
1

> <PUBCHEM_CACTVS_TAUTO_COUNT>
-1

> <PUBCHEM_COORDINATE_TYPE>
1
5
255

> <PUBCHEM_BONDANNOTATIONS>
12  16  8
13  17  8
14  19  3
15  16  8
15  17  8
2  19  8
2  20  8
4  19  8
4  5  8
5  20  8
8  12  8
8  13  8

$$$$
1077666
  -OEChem-08172310442D

 47 49  0     0  0  0  0  0  0999 V2000
    3.0000   -5.7500    0.0000 Cl  0  0  0  0  0  0  0  0  0  0  0  0
    3.0000   -1.7500    0.0000 S   0  0  0  0  0  0  0  0  0  0  0  0
    2.0000   -1.7500    0.0000 O   0  0  0  0  0  0  0  0  0  0  0  0
    4.0000   -1.7500    0.0000 O   0  0  0  0  0  0  0  0  0  0  0  0
    2.1340    2.7500    0.0000 O   0  0  0  0  0  0  0  0  0  0  0  0
    3.0000   -0.7500    0.0000 N   0  0  0  0  0  0  0  0  0  0  0  0
    3.8660    2.7500    0.0000 N   0  0  0  0  0  0  0  0  0  0  0  0
    3.0000    1.2500    0.0000 C   0  0  0  0  0  0  0  0  0  0  0  0
    2.1340    0.7500    0.0000 C   0  0  0  0  0  0  0  0  0  0  0  0
    3.8660    0.7500    0.0000 C   0  0  0  0  0  0  0  0  0  0  0  0
    2.1340   -0.2500    0.0000 C   0  0  0  0  0  0  0  0  0  0  0  0
    3.8660   -0.2500    0.0000 C   0  0  0  0  0  0  0  0  0  0  0  0
    3.0000    2.2500    0.0000 C   0  0  0  0  0  0  0  0  0  0  0  0
    3.0000   -2.7500    0.0000 C   0  0  0  0  0  0  0  0  0  0  0  0
    3.8660    3.7500    0.0000 C   0  0  0  0  0  0  0  0  0  0  0  0
    3.8660   -3.2500    0.0000 C   0  0  0  0  0  0  0  0  0  0  0  0
    2.1340   -3.2500    0.0000 C   0  0  0  0  0  0  0  0  0  0  0  0
    4.7320    4.2500    0.0000 C   0  0  0  0  0  0  0  0  0  0  0  0
    3.8660   -4.2500    0.0000 C   0  0  0  0  0  0  0  0  0  0  0  0
    2.1340   -4.2500    0.0000 C   0  0  0  0  0  0  0  0  0  0  0  0
    3.0000   -4.7500    0.0000 C   0  0  0  0  0  0  0  0  0  0  0  0
    5.5981    3.7500    0.0000 C   0  0  0  0  0  0  0  0  0  0  0  0
    4.7320    5.2500    0.0000 C   0  0  0  0  0  0  0  0  0  0  0  0
    6.4641    4.2500    0.0000 C   0  0  0  0  0  0  0  0  0  0  0  0
    5.5981    5.7500    0.0000 C   0  0  0  0  0  0  0  0  0  0  0  0
    6.4641    5.2500    0.0000 C   0  0  0  0  0  0  0  0  0  0  0  0
    3.5369    1.5600    0.0000 H   0  0  0  0  0  0  0  0  0  0  0  0
    1.9219    1.3326    0.0000 H   0  0  0  0  0  0  0  0  0  0  0  0
    1.5234    0.6423    0.0000 H   0  0  0  0  0  0  0  0  0  0  0  0
    4.4766    0.6423    0.0000 H   0  0  0  0  0  0  0  0  0  0  0  0
    4.0781    1.3326    0.0000 H   0  0  0  0  0  0  0  0  0  0  0  0
    1.5234   -0.1423    0.0000 H   0  0  0  0  0  0  0  0  0  0  0  0
    1.9219   -0.8326    0.0000 H   0  0  0  0  0  0  0  0  0  0  0  0
    4.0781   -0.8326    0.0000 H   0  0  0  0  0  0  0  0  0  0  0  0
    4.4766   -0.1423    0.0000 H   0  0  0  0  0  0  0  0  0  0  0  0
    4.4030    2.4400    0.0000 H   0  0  0  0  0  0  0  0  0  0  0  0
    3.6540    4.3326    0.0000 H   0  0  0  0  0  0  0  0  0  0  0  0
    3.2554    3.6423    0.0000 H   0  0  0  0  0  0  0  0  0  0  0  0
    4.4030   -2.9400    0.0000 H   0  0  0  0  0  0  0  0  0  0  0  0
    1.5970   -2.9400    0.0000 H   0  0  0  0  0  0  0  0  0  0  0  0
    4.4030   -4.5600    0.0000 H   0  0  0  0  0  0  0  0  0  0  0  0
    1.5970   -4.5600    0.0000 H   0  0  0  0  0  0  0  0  0  0  0  0
    5.5981    3.1300    0.0000 H   0  0  0  0  0  0  0  0  0  0  0  0
    4.1951    5.5600    0.0000 H   0  0  0  0  0  0  0  0  0  0  0  0
    7.0010    3.9400    0.0000 H   0  0  0  0  0  0  0  0  0  0  0  0
    5.5981    6.3700    0.0000 H   0  0  0  0  0  0  0  0  0  0  0  0
    7.0010    5.5600    0.0000 H   0  0  0  0  0  0  0  0  0  0  0  0
  1 21  1  0  0  0  0
  2  3  2  0  0  0  0
  2  4  2  0  0  0  0
  2  6  1  0  0  0  0
  2 14  1  0  0  0  0
  5 13  2  0  0  0  0
  6 11  1  0  0  0  0
  6 12  1  0  0  0  0
  7 13  1  0  0  0  0
  7 15  1  0  0  0  0
  7 36  1  0  0  0  0
  8  9  1  0  0  0  0
  8 10  1  0  0  0  0
  8 13  1  0  0  0  0
  8 27  1  0  0  0  0
  9 11  1  0  0  0  0
  9 28  1  0  0  0  0
  9 29  1  0  0  0  0
 10 12  1  0  0  0  0
 10 30  1  0  0  0  0
 10 31  1  0  0  0  0
 11 32  1  0  0  0  0
 11 33  1  0  0  0  0
 12 34  1  0  0  0  0
 12 35  1  0  0  0  0
 14 16  2  0  0  0  0
 14 17  1  0  0  0  0
 15 18  1  0  0  0  0
 15 37  1  0  0  0  0
 15 38  1  0  0  0  0
 16 19  1  0  0  0  0
 16 39  1  0  0  0  0
 17 20  2  0  0  0  0
 17 40  1  0  0  0  0
 18 22  2  0  0  0  0
 18 23  1  0  0  0  0
 19 21  2  0  0  0  0
 19 41  1  0  0  0  0
 20 21  1  0  0  0  0
 20 42  1  0  0  0  0
 22 24  1  0  0  0  0
 22 43  1  0  0  0  0
 23 25  2  0  0  0  0
 23 44  1  0  0  0  0
 24 26  2  0  0  0  0
 24 45  1  0  0  0  0
 25 26  1  0  0  0  0
 25 46  1  0  0  0  0
 26 47  1  0  0  0  0
M  END
> <PUBCHEM_COMPOUND_CID>
1077666

> <PUBCHEM_COMPOUND_CANONICALIZED>
1

> <PUBCHEM_CACTVS_COMPLEXITY>
556

> <PUBCHEM_CACTVS_HBOND_ACCEPTOR>
4

> <PUBCHEM_CACTVS_HBOND_DONOR>
1

> <PUBCHEM_CACTVS_ROTATABLE_BOND>
5

> <PUBCHEM_CACTVS_SUBSKEYS>
AAADceB7MABEAAAAAAAAAAAAAAAAAAAAAAA8YIAAAAAAAAABQAAAHgYQQAAADQLB2CQwAYLAAAKIAiFSEHDCABAgBQAIiJkIBogIIDKBkxGEIAhglgCIiAcUgAAOAAIAAAAAAAAABAAAAAAAAAAAAAAAAA==

> <PUBCHEM_IUPAC_OPENEYE_NAME>
N-benzyl-1-(4-chlorophenyl)sulfonyl-piperidine-4-carboxamide

> <PUBCHEM_IUPAC_CAS_NAME>
1-(4-chlorophenyl)sulfonyl-N-(phenylmethyl)-4-piperidinecarboxamide

> <PUBCHEM_IUPAC_NAME_MARKUP>
<I>N</I>-benzyl-1-(4-chlorophenyl)sulfonylpiperidine-4-carboxamide

> <PUBCHEM_IUPAC_NAME>
N-benzyl-1-(4-chlorophenyl)sulfonylpiperidine-4-carboxamide

> <PUBCHEM_IUPAC_SYSTEMATIC_NAME>
1-(4-chlorophenyl)sulfonyl-N-(phenylmethyl)piperidine-4-carboxamide

> <PUBCHEM_IUPAC_TRADITIONAL_NAME>
N-benzyl-1-(4-chlorophenyl)sulfonyl-isonipecotamide

> <PUBCHEM_IUPAC_INCHI>
InChI=1S/C19H21ClN2O3S/c20-17-6-8-18(9-7-17)26(24,25)22-12-10-16(11-13-22)19(23)21-14-15-4-2-1-3-5-15/h1-9,16H,10-14H2,(H,21,23)

> <PUBCHEM_IUPAC_INCHIKEY>
GIJGHINOALWYCL-UHFFFAOYSA-N

> <PUBCHEM_XLOGP3_AA>
3

> <PUBCHEM_EXACT_MASS>
392.0961414

> <PUBCHEM_MOLECULAR_FORMULA>
C19H21ClN2O3S

> <PUBCHEM_MOLECULAR_WEIGHT>
392.9

> <PUBCHEM_OPENEYE_CAN_SMILES>
C1CN(CCC1C(=O)NCC2=CC=CC=C2)S(=O)(=O)C3=CC=C(C=C3)Cl

> <PUBCHEM_OPENEYE_ISO_SMILES>
C1CN(CCC1C(=O)NCC2=CC=CC=C2)S(=O)(=O)C3=CC=C(C=C3)Cl

> <PUBCHEM_CACTVS_TPSA>
74.9

> <PUBCHEM_MONOISOTOPIC_WEIGHT>
392.0961414

> <PUBCHEM_TOTAL_CHARGE>
0

> <PUBCHEM_HEAVY_ATOM_COUNT>
26

> <PUBCHEM_ATOM_DEF_STEREO_COUNT>
0

> <PUBCHEM_ATOM_UDEF_STEREO_COUNT>
0

> <PUBCHEM_BOND_DEF_STEREO_COUNT>
0

> <PUBCHEM_BOND_UDEF_STEREO_COUNT>
0

> <PUBCHEM_ISOTOPIC_ATOM_COUNT>
0

> <PUBCHEM_COMPONENT_COUNT>
1

> <PUBCHEM_CACTVS_TAUTO_COUNT>
-1

> <PUBCHEM_COORDINATE_TYPE>
1
5
255

> <PUBCHEM_BONDANNOTATIONS>
14  16  8
14  17  8
16  19  8
17  20  8
18  22  8
18  23  8
19  21  8
20  21  8
22  24  8
23  25  8
24  26  8
25  26  8

$$$$
163196307
  -OEChem-08172310442D

 55 57  0     1  0  0  0  0  0999 V2000
    6.9804   -2.1167    0.0000 F   0  0  0  0  0  0  0  0  0  0  0  0
    7.3464   -3.4827    0.0000 F   0  0  0  0  0  0  0  0  0  0  0  0
    5.9804   -3.8488    0.0000 F   0  0  0  0  0  0  0  0  0  0  0  0
    3.0115   -5.0173    0.0000 F   0  0  0  0  0  0  0  0  0  0  0  0
    2.0000   -4.0289    0.0000 F   0  0  0  0  0  0  0  0  0  0  0  0
    3.9999   -4.0058    0.0000 F   0  0  0  0  0  0  0  0  0  0  0  0
    3.8823    0.5173    0.0000 O   0  0  0  0  0  0  0  0  0  0  0  0
    7.3464    0.5173    0.0000 O   0  0  0  0  0  0  0  0  0  0  0  0
    5.6144    1.5173    0.0000 N   0  0  0  0  0  0  0  0  0  0  0  0
    4.7483   -2.9827    0.0000 N   0  0  0  0  0  0  0  0  0  0  0  0
    6.4804    2.0173    0.0000 C   0  0  1  0  0  0  0  0  0  0  0  0
    4.7483    0.0173    0.0000 C   0  0  2  0  0  0  0  0  0  0  0  0
    5.6144    0.5173    0.0000 C   0  0  0  0  0  0  0  0  0  0  0  0
    6.4804    3.0173    0.0000 C   0  0  0  0  0  0  0  0  0  0  0  0
    4.7483   -0.9827    0.0000 C   0  0  0  0  0  0  0  0  0  0  0  0
    7.3464    1.5173    0.0000 C   0  0  0  0  0  0  0  0  0  0  0  0
    3.8823   -1.4827    0.0000 C   0  0  0  0  0  0  0  0  0  0  0  0
    7.3464    3.5173    0.0000 C   0  0  0  0  0  0  0  0  0  0  0  0
    3.8823   -2.4827    0.0000 C   0  0  0  0  0  0  0  0  0  0  0  0
    5.6144   -1.4827    0.0000 C   0  0  0  0  0  0  0  0  0  0  0  0
    5.6144   -2.4827    0.0000 C   0  0  0  0  0  0  0  0  0  0  0  0
    2.9884   -3.0174    0.0000 C   0  0  0  0  0  0  0  0  0  0  0  0
    2.9884   -0.9481    0.0000 C   0  0  0  0  0  0  0  0  0  0  0  0
    7.3464    4.5173    0.0000 C   0  0  0  0  0  0  0  0  0  0  0  0
    8.2124    3.0173    0.0000 C   0  0  0  0  0  0  0  0  0  0  0  0
    2.0823   -2.5036    0.0000 C   0  0  0  0  0  0  0  0  0  0  0  0
    2.0823   -1.4619    0.0000 C   0  0  0  0  0  0  0  0  0  0  0  0
    6.4804   -2.9827    0.0000 C   0  0  0  0  0  0  0  0  0  0  0  0
    2.9999   -4.0173    0.0000 C   0  0  0  0  0  0  0  0  0  0  0  0
    8.2124    5.0173    0.0000 C   0  0  0  0  0  0  0  0  0  0  0  0
    9.0785    3.5173    0.0000 C   0  0  0  0  0  0  0  0  0  0  0  0
    8.2124    0.0173    0.0000 C   0  0  0  0  0  0  0  0  0  0  0  0
    9.0785    4.5173    0.0000 C   0  0  0  0  0  0  0  0  0  0  0  0
    5.9434    2.3273    0.0000 H   0  0  0  0  0  0  0  0  0  0  0  0
    4.7483    0.6373    0.0000 H   0  0  0  0  0  0  0  0  0  0  0  0
    5.8264   -0.0653    0.0000 H   0  0  0  0  0  0  0  0  0  0  0  0
    6.2249    0.6249    0.0000 H   0  0  0  0  0  0  0  0  0  0  0  0
    5.0774    1.8273    0.0000 H   0  0  0  0  0  0  0  0  0  0  0  0
    6.2683    3.5999    0.0000 H   0  0  0  0  0  0  0  0  0  0  0  0
    5.8698    2.9096    0.0000 H   0  0  0  0  0  0  0  0  0  0  0  0
    7.9570    1.4096    0.0000 H   0  0  0  0  0  0  0  0  0  0  0  0
    7.5585    2.0999    0.0000 H   0  0  0  0  0  0  0  0  0  0  0  0
    6.1513   -1.1727    0.0000 H   0  0  0  0  0  0  0  0  0  0  0  0
    2.9955   -0.3281    0.0000 H   0  0  0  0  0  0  0  0  0  0  0  0
    3.8823    1.1373    0.0000 H   0  0  0  0  0  0  0  0  0  0  0  0
    6.8095    4.8273    0.0000 H   0  0  0  0  0  0  0  0  0  0  0  0
    8.2124    2.3973    0.0000 H   0  0  0  0  0  0  0  0  0  0  0  0
    1.5466   -2.8156    0.0000 H   0  0  0  0  0  0  0  0  0  0  0  0
    1.5466   -1.1498    0.0000 H   0  0  0  0  0  0  0  0  0  0  0  0
    8.2124    5.6373    0.0000 H   0  0  0  0  0  0  0  0  0  0  0  0
    9.6154    3.2073    0.0000 H   0  0  0  0  0  0  0  0  0  0  0  0
    7.9024   -0.5197    0.0000 H   0  0  0  0  0  0  0  0  0  0  0  0
    8.7494   -0.2927    0.0000 H   0  0  0  0  0  0  0  0  0  0  0  0
    8.5224    0.5542    0.0000 H   0  0  0  0  0  0  0  0  0  0  0  0
    9.6154    4.8273    0.0000 H   0  0  0  0  0  0  0  0  0  0  0  0
  1 28  1  0  0  0  0
  2 28  1  0  0  0  0
  3 28  1  0  0  0  0
  4 29  1  0  0  0  0
  5 29  1  0  0  0  0
  6 29  1  0  0  0  0
 12  7  1  6  0  0  0
  7 45  1  0  0  0  0
  8 16  1  0  0  0  0
  8 32  1  0  0  0  0
 11  9  1  1  0  0  0
  9 13  1  0  0  0  0
  9 38  1  0  0  0  0
 10 19  1  0  0  0  0
 10 21  2  0  0  0  0
 11 14  1  0  0  0  0
 11 16  1  0  0  0  0
 11 34  1  0  0  0  0
 12 13  1  0  0  0  0
 12 15  1  0  0  0  0
 12 35  1  0  0  0  0
 13 36  1  0  0  0  0
 13 37  1  0  0  0  0
 14 18  1  0  0  0  0
 14 39  1  0  0  0  0
 14 40  1  0  0  0  0
 15 17  1  0  0  0  0
 15 20  2  0  0  0  0
 16 41  1  0  0  0  0
 16 42  1  0  0  0  0
 17 19  2  0  0  0  0
 17 23  1  0  0  0  0
 18 24  2  0  0  0  0
 18 25  1  0  0  0  0
 19 22  1  0  0  0  0
 20 21  1  0  0  0  0
 20 43  1  0  0  0  0
 21 28  1  0  0  0  0
 22 26  2  0  0  0  0
 22 29  1  0  0  0  0
 23 27  2  0  0  0  0
 23 44  1  0  0  0  0
 24 30  1  0  0  0  0
 24 46  1  0  0  0  0
 25 31  2  0  0  0  0
 25 47  1  0  0  0  0
 26 27  1  0  0  0  0
 26 48  1  0  0  0  0
 27 49  1  0  0  0  0
 30 33  2  0  0  0  0
 30 50  1  0  0  0  0
 31 33  1  0  0  0  0
 31 51  1  0  0  0  0
 32 52  1  0  0  0  0
 32 53  1  0  0  0  0
 32 54  1  0  0  0  0
 33 55  1  0  0  0  0
M  END
> <PUBCHEM_COMPOUND_CID>
163196307

> <PUBCHEM_COMPOUND_CANONICALIZED>
1

> <PUBCHEM_CACTVS_COMPLEXITY>
597

> <PUBCHEM_CACTVS_HBOND_ACCEPTOR>
10

> <PUBCHEM_CACTVS_HBOND_DONOR>
2

> <PUBCHEM_CACTVS_ROTATABLE_BOND>
8

> <PUBCHEM_CACTVS_SUBSKEYS>
AAADceB7McAAAAAAAAAAAAAAAAAAAAAAAAA8YIAAAAAAAACx9AAAHwAQCAAADDzhnhYywPLIFgCgAyRiRACCgCAhAiAImKA4bJgKNuLAkZGFcAhk0AHY2AewwPAOgAACAAACAAAAAAQAAAQAAAAAAAAAAA==

> <PUBCHEM_IUPAC_OPENEYE_NAME>
(1S)-2-[[(1S)-1-benzyl-2-methoxy-ethyl]amino]-1-[2,8-bis(trifluoromethyl)-4-quinolyl]ethanol

> <PUBCHEM_IUPAC_CAS_NAME>
(1S)-1-[2,8-bis(trifluoromethyl)-4-quinolinyl]-2-[[(2S)-1-methoxy-3-phenylpropan-2-yl]amino]ethanol

> <PUBCHEM_IUPAC_NAME_MARKUP>
(1<I>S</I>)-1-[2,8-bis(trifluoromethyl)quinolin-4-yl]-2-[[(2<I>S</I>)-1-methoxy-3-phenylpropan-2-yl]amino]ethanol

> <PUBCHEM_IUPAC_NAME>
(1S)-1-[2,8-bis(trifluoromethyl)quinolin-4-yl]-2-[[(2S)-1-methoxy-3-phenylpropan-2-yl]amino]ethanol

> <PUBCHEM_IUPAC_SYSTEMATIC_NAME>
(1S)-1-[2,8-bis(trifluoromethyl)quinolin-4-yl]-2-[[(2S)-1-methoxy-3-phenyl-propan-2-yl]amino]ethanol

> <PUBCHEM_IUPAC_TRADITIONAL_NAME>
(1S)-2-[[(1S)-1-benzyl-2-methoxy-ethyl]amino]-1-[2,8-bis(trifluoromethyl)-4-quinolyl]ethanol

> <PUBCHEM_IUPAC_INCHI>
InChI=1S/C23H22F6N2O2/c1-33-13-15(10-14-6-3-2-4-7-14)30-12-19(32)17-11-20(23(27,28)29)31-21-16(17)8-5-9-18(21)22(24,25)26/h2-9,11,15,19,30,32H,10,12-13H2,1H3/t15-,19+/m0/s1

> <PUBCHEM_IUPAC_INCHIKEY>
TZXAENYIJDOHQI-HNAYVOBHSA-N

> <PUBCHEM_XLOGP3_AA>
4.6

> <PUBCHEM_EXACT_MASS>
472.15854692

> <PUBCHEM_MOLECULAR_FORMULA>
C23H22F6N2O2

> <PUBCHEM_MOLECULAR_WEIGHT>
472.4

> <PUBCHEM_OPENEYE_CAN_SMILES>
COCC(CC1=CC=CC=C1)NCC(C2=CC(=NC3=C2C=CC=C3C(F)(F)F)C(F)(F)F)O

> <PUBCHEM_OPENEYE_ISO_SMILES>
COC[C@H](CC1=CC=CC=C1)NC[C@H](C2=CC(=NC3=C2C=CC=C3C(F)(F)F)C(F)(F)F)O

> <PUBCHEM_CACTVS_TPSA>
54.4

> <PUBCHEM_MONOISOTOPIC_WEIGHT>
472.15854692

> <PUBCHEM_TOTAL_CHARGE>
0

> <PUBCHEM_HEAVY_ATOM_COUNT>
33

> <PUBCHEM_ATOM_DEF_STEREO_COUNT>
2

> <PUBCHEM_ATOM_UDEF_STEREO_COUNT>
0

> <PUBCHEM_BOND_DEF_STEREO_COUNT>
0

> <PUBCHEM_BOND_UDEF_STEREO_COUNT>
0

> <PUBCHEM_ISOTOPIC_ATOM_COUNT>
0

> <PUBCHEM_COMPONENT_COUNT>
1

> <PUBCHEM_CACTVS_TAUTO_COUNT>
-1

> <PUBCHEM_COORDINATE_TYPE>
1
5
255

> <PUBCHEM_BONDANNOTATIONS>
10  19  8
10  21  8
15  17  8
15  20  8
17  19  8
17  23  8
18  24  8
18  25  8
19  22  8
20  21  8
22  26  8
23  27  8
24  30  8
25  31  8
26  27  8
30  33  8
31  33  8
12  7  6
11  9  5

$$$$
16399017
  -OEChem-08172310442D

 67 71  0     1  0  0  0  0  0999 V2000
    7.0864   -3.3509    0.0000 O   0  0  0  0  0  0  0  0  0  0  0  0
    9.3148    0.7110    0.0000 O   0  0  0  0  0  0  0  0  0  0  0  0
    8.7040   -1.1935    0.0000 O   0  0  0  0  0  0  0  0  0  0  0  0
    8.3780   -2.1969    0.0000 O   0  0  0  0  0  0  0  0  0  0  0  0
   11.9173    3.0633    0.0000 O   0  0  0  0  0  0  0  0  0  0  0  0
   13.5997    2.5128    0.0000 O   0  0  0  0  0  0  0  0  0  0  0  0
    7.0547   -0.6646    0.0000 N   0  0  0  0  0  0  0  0  0  0  0  0
    4.5274    0.4596    0.0000 N   0  0  0  0  0  0  0  0  0  0  0  0
    6.7328   -1.6553    0.0000 C   0  0  1  0  0  0  0  0  0  0  0  0
    5.7123   -1.8640    0.0000 C   0  0  0  0  0  0  0  0  0  0  0  0
    5.0274   -1.0792    0.0000 C   0  0  0  0  0  0  0  0  0  0  0  0
    5.3364   -0.1282    0.0000 C   0  0  0  0  0  0  0  0  0  0  0  0
    6.3518    0.1041    0.0000 C   0  0  0  0  0  0  0  0  0  0  0  0
    4.0274   -1.0792    0.0000 C   0  0  0  0  0  0  0  0  0  0  0  0
    3.7183   -0.1282    0.0000 C   0  0  0  0  0  0  0  0  0  0  0  0
    8.0321   -0.4529    0.0000 C   0  0  0  0  0  0  0  0  0  0  0  0
    7.3991   -2.4010    0.0000 C   0  0  0  0  0  0  0  0  0  0  0  0
    3.3424   -1.8640    0.0000 C   0  0  0  0  0  0  0  0  0  0  0  0
    2.7029    0.1041    0.0000 C   0  0  0  0  0  0  0  0  0  0  0  0
    8.3374    0.4993    0.0000 C   0  0  0  0  0  0  0  0  0  0  0  0
    2.3219   -1.6553    0.0000 C   0  0  0  0  0  0  0  0  0  0  0  0
    2.0000   -0.6646    0.0000 C   0  0  0  0  0  0  0  0  0  0  0  0
   10.5974    1.8749    0.0000 C   0  0  0  0  0  0  0  0  0  0  0  0
    9.6201    1.6632    0.0000 C   0  0  0  0  0  0  0  0  0  0  0  0
   11.2854    1.0928    0.0000 C   0  0  0  0  0  0  0  0  0  0  0  0
   10.9691    0.1442    0.0000 C   0  0  0  0  0  0  0  0  0  0  0  0
   11.6325   -0.6041    0.0000 C   0  0  0  0  0  0  0  0  0  0  0  0
   10.9028    2.8271    0.0000 C   0  0  0  0  0  0  0  0  0  0  0  0
    8.9481    2.4038    0.0000 C   0  0  0  0  0  0  0  0  0  0  0  0
    7.7527   -4.0966    0.0000 C   0  0  0  0  0  0  0  0  0  0  0  0
    9.2535    3.3560    0.0000 C   0  0  0  0  0  0  0  0  0  0  0  0
   11.3161   -1.5528    0.0000 C   0  0  0  0  0  0  0  0  0  0  0  0
   10.2308    3.5677    0.0000 C   0  0  0  0  0  0  0  0  0  0  0  0
   12.3051    1.3054    0.0000 C   0  0  0  0  0  0  0  0  0  0  0  0
   12.6232    2.2973    0.0000 C   0  0  0  0  0  0  0  0  0  0  0  0
    8.5815    4.0966    0.0000 C   0  0  0  0  0  0  0  0  0  0  0  0
   11.9795   -2.3010    0.0000 C   0  0  0  0  0  0  0  0  0  0  0  0
    7.3395   -1.5275    0.0000 H   0  0  0  0  0  0  0  0  0  0  0  0
    5.1824   -2.1858    0.0000 H   0  0  0  0  0  0  0  0  0  0  0  0
    5.9387   -2.4412    0.0000 H   0  0  0  0  0  0  0  0  0  0  0  0
    6.8742    0.4380    0.0000 H   0  0  0  0  0  0  0  0  0  0  0  0
    6.1122    0.6759    0.0000 H   0  0  0  0  0  0  0  0  0  0  0  0
    4.5274    1.0796    0.0000 H   0  0  0  0  0  0  0  0  0  0  0  0
    3.5408   -2.4514    0.0000 H   0  0  0  0  0  0  0  0  0  0  0  0
    2.5182    0.6959    0.0000 H   0  0  0  0  0  0  0  0  0  0  0  0
    8.3134    1.1188    0.0000 H   0  0  0  0  0  0  0  0  0  0  0  0
    7.7231    0.5832    0.0000 H   0  0  0  0  0  0  0  0  0  0  0  0
    1.9088   -2.1176    0.0000 H   0  0  0  0  0  0  0  0  0  0  0  0
    1.3940   -0.5334    0.0000 H   0  0  0  0  0  0  0  0  0  0  0  0
   10.4239    0.4394    0.0000 H   0  0  0  0  0  0  0  0  0  0  0  0
   10.5836   -0.3415    0.0000 H   0  0  0  0  0  0  0  0  0  0  0  0
   12.1776   -0.8994    0.0000 H   0  0  0  0  0  0  0  0  0  0  0  0
   12.0179   -0.1185    0.0000 H   0  0  0  0  0  0  0  0  0  0  0  0
    8.3422    2.2725    0.0000 H   0  0  0  0  0  0  0  0  0  0  0  0
    7.2903   -4.5097    0.0000 H   0  0  0  0  0  0  0  0  0  0  0  0
    8.1658   -4.5589    0.0000 H   0  0  0  0  0  0  0  0  0  0  0  0
    8.2150   -3.6835    0.0000 H   0  0  0  0  0  0  0  0  0  0  0  0
   10.7710   -1.2575    0.0000 H   0  0  0  0  0  0  0  0  0  0  0  0
   10.9307   -2.0384    0.0000 H   0  0  0  0  0  0  0  0  0  0  0  0
   10.4201    4.1581    0.0000 H   0  0  0  0  0  0  0  0  0  0  0  0
   12.7200    0.8447    0.0000 H   0  0  0  0  0  0  0  0  0  0  0  0
    9.0406    4.5132    0.0000 H   0  0  0  0  0  0  0  0  0  0  0  0
    8.1648    4.5557    0.0000 H   0  0  0  0  0  0  0  0  0  0  0  0
    8.1223    3.6799    0.0000 H   0  0  0  0  0  0  0  0  0  0  0  0
   11.5156   -2.7123    0.0000 H   0  0  0  0  0  0  0  0  0  0  0  0
   12.3908   -2.7650    0.0000 H   0  0  0  0  0  0  0  0  0  0  0  0
   12.4434   -1.8898    0.0000 H   0  0  0  0  0  0  0  0  0  0  0  0
  1 17  1  0  0  0  0
  1 30  1  0  0  0  0
  2 20  1  0  0  0  0
  2 24  1  0  0  0  0
  3 16  2  0  0  0  0
  4 17  2  0  0  0  0
  5 28  1  0  0  0  0
  5 35  1  0  0  0  0
  6 35  2  0  0  0  0
  7  9  1  0  0  0  0
  7 13  1  0  0  0  0
  7 16  1  0  0  0  0
  8 12  1  0  0  0  0
  8 15  1  0  0  0  0
  8 43  1  0  0  0  0
  9 10  1  0  0  0  0
  9 17  1  6  0  0  0
  9 38  1  0  0  0  0
 10 11  1  0  0  0  0
 10 39  1  0  0  0  0
 10 40  1  0  0  0  0
 11 12  2  0  0  0  0
 11 14  1  0  0  0  0
 12 13  1  0  0  0  0
 13 41  1  0  0  0  0
 13 42  1  0  0  0  0
 14 15  1  0  0  0  0
 14 18  2  0  0  0  0
 15 19  2  0  0  0  0
 16 20  1  0  0  0  0
 18 21  1  0  0  0  0
 18 44  1  0  0  0  0
 19 22  1  0  0  0  0
 19 45  1  0  0  0  0
 20 46  1  0  0  0  0
 20 47  1  0  0  0  0
 21 22  2  0  0  0  0
 21 48  1  0  0  0  0
 22 49  1  0  0  0  0
 23 24  1  0  0  0  0
 23 25  1  0  0  0  0
 23 28  2  0  0  0  0
 24 29  2  0  0  0  0
 25 26  1  0  0  0  0
 25 34  2  0  0  0  0
 26 27  1  0  0  0  0
 26 50  1  0  0  0  0
 26 51  1  0  0  0  0
 27 32  1  0  0  0  0
 27 52  1  0  0  0  0
 27 53  1  0  0  0  0
 28 33  1  0  0  0  0
 29 31  1  0  0  0  0
 29 54  1  0  0  0  0
 30 55  1  0  0  0  0
 30 56  1  0  0  0  0
 30 57  1  0  0  0  0
 31 33  2  0  0  0  0
 31 36  1  0  0  0  0
 32 37  1  0  0  0  0
 32 58  1  0  0  0  0
 32 59  1  0  0  0  0
 33 60  1  0  0  0  0
 34 35  1  0  0  0  0
 34 61  1  0  0  0  0
 36 62  1  0  0  0  0
 36 63  1  0  0  0  0
 36 64  1  0  0  0  0
 37 65  1  0  0  0  0
 37 66  1  0  0  0  0
 37 67  1  0  0  0  0
M  END
> <PUBCHEM_COMPOUND_CID>
16399017

> <PUBCHEM_COMPOUND_CANONICALIZED>
1

> <PUBCHEM_CACTVS_COMPLEXITY>
905

> <PUBCHEM_CACTVS_HBOND_ACCEPTOR>
6

> <PUBCHEM_CACTVS_HBOND_DONOR>
1

> <PUBCHEM_CACTVS_ROTATABLE_BOND>
8

> <PUBCHEM_CACTVS_SUBSKEYS>
AAADceB7OAAAAAAAAAAAAAAAAAAAAWAAAAA8YIEAAAAAAFiB9AAAHgAQAAAADCzhngYyzvPJlACoAyXyXAKCiCAhIiAImSH+bNgOZ/LEsb+XOijl1hXY6QeY+f+ewAABCAAKAACAAAIQABQAAAAAAAAAAA==

> <PUBCHEM_IUPAC_OPENEYE_NAME>
methyl (3S)-2-[2-(4-butyl-7-methyl-2-oxo-chromen-5-yl)oxyacetyl]-1,3,4,9-tetrahydropyrido[3,4-b]indole-3-carboxylate

> <PUBCHEM_IUPAC_CAS_NAME>
(3S)-2-[2-[(4-butyl-7-methyl-2-oxo-1-benzopyran-5-yl)oxy]-1-oxoethyl]-1,3,4,9-tetrahydropyrido[3,4-b]indole-3-carboxylic acid methyl ester

> <PUBCHEM_IUPAC_NAME_MARKUP>
methyl (3<I>S</I>)-2-[2-(4-butyl-7-methyl-2-oxochromen-5-yl)oxyacetyl]-1,3,4,9-tetrahydropyrido[3,4-b]indole-3-carboxylate

> <PUBCHEM_IUPAC_NAME>
methyl (3S)-2-[2-(4-butyl-7-methyl-2-oxochromen-5-yl)oxyacetyl]-1,3,4,9-tetrahydropyrido[3,4-b]indole-3-carboxylate

> <PUBCHEM_IUPAC_SYSTEMATIC_NAME>
methyl (3S)-2-[2-(4-butyl-7-methyl-2-oxidanylidene-chromen-5-yl)oxyethanoyl]-1,3,4,9-tetrahydropyrido[3,4-b]indole-3-carboxylate

> <PUBCHEM_IUPAC_TRADITIONAL_NAME>
(3S)-2-[2-(4-butyl-2-keto-7-methyl-chromen-5-yl)oxyacetyl]-1,3,4,9-tetrahydro-beta-carboline-3-carboxylic acid methyl ester

> <PUBCHEM_IUPAC_INCHI>
InChI=1S/C29H30N2O6/c1-4-5-8-18-13-27(33)37-25-12-17(2)11-24(28(18)25)36-16-26(32)31-15-22-20(14-23(31)29(34)35-3)19-9-6-7-10-21(19)30-22/h6-7,9-13,23,30H,4-5,8,14-16H2,1-3H3/t23-/m0/s1

> <PUBCHEM_IUPAC_INCHIKEY>
USKDWDUNHJEKIJ-QHCPKHFHSA-N

> <PUBCHEM_XLOGP3_AA>
4.9

> <PUBCHEM_EXACT_MASS>
502.21038668

> <PUBCHEM_MOLECULAR_FORMULA>
C29H30N2O6

> <PUBCHEM_MOLECULAR_WEIGHT>
502.6

> <PUBCHEM_OPENEYE_CAN_SMILES>
CCCCC1=CC(=O)OC2=C1C(=CC(=C2)C)OCC(=O)N3CC4=C(CC3C(=O)OC)C5=CC=CC=C5N4

> <PUBCHEM_OPENEYE_ISO_SMILES>
CCCCC1=CC(=O)OC2=C1C(=CC(=C2)C)OCC(=O)N3CC4=C(C[C@H]3C(=O)OC)C5=CC=CC=C5N4

> <PUBCHEM_CACTVS_TPSA>
97.9

> <PUBCHEM_MONOISOTOPIC_WEIGHT>
502.21038668

> <PUBCHEM_TOTAL_CHARGE>
0

> <PUBCHEM_HEAVY_ATOM_COUNT>
37

> <PUBCHEM_ATOM_DEF_STEREO_COUNT>
1

> <PUBCHEM_ATOM_UDEF_STEREO_COUNT>
0

> <PUBCHEM_BOND_DEF_STEREO_COUNT>
0

> <PUBCHEM_BOND_UDEF_STEREO_COUNT>
0

> <PUBCHEM_ISOTOPIC_ATOM_COUNT>
0

> <PUBCHEM_COMPONENT_COUNT>
1

> <PUBCHEM_CACTVS_TAUTO_COUNT>
-1

> <PUBCHEM_COORDINATE_TYPE>
1
5
255

> <PUBCHEM_BONDANNOTATIONS>
11  12  8
11  14  8
14  15  8
14  18  8
15  19  8
18  21  8
19  22  8
21  22  8
23  24  8
23  25  8
23  28  8
24  29  8
25  34  8
28  33  8
29  31  8
31  33  8
34  35  8
5  28  8
5  35  8
8  12  8
8  15  8
9  17  6

$$$$
165412598
  -OEChem-08172310442D

 70 74  0     1  0  0  0  0  0999 V2000
    9.3148    0.7110    0.0000 O   0  0  0  0  0  0  0  0  0  0  0  0
    7.0864   -3.3509    0.0000 O   0  0  0  0  0  0  0  0  0  0  0  0
    8.7040   -1.1935    0.0000 O   0  0  0  0  0  0  0  0  0  0  0  0
    8.3780   -2.1969    0.0000 O   0  0  0  0  0  0  0  0  0  0  0  0
   11.9173    3.0633    0.0000 O   0  0  0  0  0  0  0  0  0  0  0  0
   13.5997    2.5128    0.0000 O   0  0  0  0  0  0  0  0  0  0  0  0
    7.0547   -0.6646    0.0000 N   0  0  0  0  0  0  0  0  0  0  0  0
    4.5274    0.4596    0.0000 N   0  0  0  0  0  0  0  0  0  0  0  0
    6.7328   -1.6553    0.0000 C   0  0  1  0  0  0  0  0  0  0  0  0
    5.7123   -1.8640    0.0000 C   0  0  0  0  0  0  0  0  0  0  0  0
    5.0274   -1.0792    0.0000 C   0  0  0  0  0  0  0  0  0  0  0  0
    5.3364   -0.1282    0.0000 C   0  0  0  0  0  0  0  0  0  0  0  0
    6.3518    0.1041    0.0000 C   0  0  0  0  0  0  0  0  0  0  0  0
    4.0274   -1.0792    0.0000 C   0  0  0  0  0  0  0  0  0  0  0  0
    3.7183   -0.1282    0.0000 C   0  0  0  0  0  0  0  0  0  0  0  0
    8.0321   -0.4529    0.0000 C   0  0  0  0  0  0  0  0  0  0  0  0
    7.3991   -2.4010    0.0000 C   0  0  0  0  0  0  0  0  0  0  0  0
    8.3374    0.4993    0.0000 C   0  0  1  0  0  0  0  0  0  0  0  0
    3.3424   -1.8640    0.0000 C   0  0  0  0  0  0  0  0  0  0  0  0
    2.7029    0.1041    0.0000 C   0  0  0  0  0  0  0  0  0  0  0  0
    2.3219   -1.6553    0.0000 C   0  0  0  0  0  0  0  0  0  0  0  0
    2.0000   -0.6646    0.0000 C   0  0  0  0  0  0  0  0  0  0  0  0
    7.6654    1.2398    0.0000 C   0  0  0  0  0  0  0  0  0  0  0  0
    9.6201    1.6632    0.0000 C   0  0  0  0  0  0  0  0  0  0  0  0
   10.5974    1.8749    0.0000 C   0  0  0  0  0  0  0  0  0  0  0  0
   11.2854    1.0928    0.0000 C   0  0  0  0  0  0  0  0  0  0  0  0
   10.9691    0.1442    0.0000 C   0  0  0  0  0  0  0  0  0  0  0  0
   10.9028    2.8271    0.0000 C   0  0  0  0  0  0  0  0  0  0  0  0
    8.9481    2.4038    0.0000 C   0  0  0  0  0  0  0  0  0  0  0  0
   11.6325   -0.6041    0.0000 C   0  0  0  0  0  0  0  0  0  0  0  0
    9.2535    3.3560    0.0000 C   0  0  0  0  0  0  0  0  0  0  0  0
    7.7527   -4.0966    0.0000 C   0  0  0  0  0  0  0  0  0  0  0  0
   10.2308    3.5677    0.0000 C   0  0  0  0  0  0  0  0  0  0  0  0
   12.3051    1.3054    0.0000 C   0  0  0  0  0  0  0  0  0  0  0  0
   11.3161   -1.5528    0.0000 C   0  0  0  0  0  0  0  0  0  0  0  0
   12.6232    2.2973    0.0000 C   0  0  0  0  0  0  0  0  0  0  0  0
    8.5815    4.0966    0.0000 C   0  0  0  0  0  0  0  0  0  0  0  0
   11.9795   -2.3010    0.0000 C   0  0  0  0  0  0  0  0  0  0  0  0
    7.3395   -1.5275    0.0000 H   0  0  0  0  0  0  0  0  0  0  0  0
    5.1824   -2.1858    0.0000 H   0  0  0  0  0  0  0  0  0  0  0  0
    5.9387   -2.4412    0.0000 H   0  0  0  0  0  0  0  0  0  0  0  0
    6.8742    0.4380    0.0000 H   0  0  0  0  0  0  0  0  0  0  0  0
    6.1122    0.6759    0.0000 H   0  0  0  0  0  0  0  0  0  0  0  0
    4.5274    1.0796    0.0000 H   0  0  0  0  0  0  0  0  0  0  0  0
    8.5267    1.0897    0.0000 H   0  0  0  0  0  0  0  0  0  0  0  0
    3.5408   -2.4514    0.0000 H   0  0  0  0  0  0  0  0  0  0  0  0
    2.5182    0.6959    0.0000 H   0  0  0  0  0  0  0  0  0  0  0  0
    1.9088   -2.1176    0.0000 H   0  0  0  0  0  0  0  0  0  0  0  0
    1.3940   -0.5334    0.0000 H   0  0  0  0  0  0  0  0  0  0  0  0
    8.1246    1.6565    0.0000 H   0  0  0  0  0  0  0  0  0  0  0  0
    7.2488    1.6990    0.0000 H   0  0  0  0  0  0  0  0  0  0  0  0
    7.2063    0.8232    0.0000 H   0  0  0  0  0  0  0  0  0  0  0  0
   10.4239    0.4394    0.0000 H   0  0  0  0  0  0  0  0  0  0  0  0
   10.5836   -0.3415    0.0000 H   0  0  0  0  0  0  0  0  0  0  0  0
    8.3422    2.2725    0.0000 H   0  0  0  0  0  0  0  0  0  0  0  0
   12.1776   -0.8994    0.0000 H   0  0  0  0  0  0  0  0  0  0  0  0
   12.0179   -0.1185    0.0000 H   0  0  0  0  0  0  0  0  0  0  0  0
    7.2903   -4.5097    0.0000 H   0  0  0  0  0  0  0  0  0  0  0  0
    8.1658   -4.5589    0.0000 H   0  0  0  0  0  0  0  0  0  0  0  0
    8.2150   -3.6835    0.0000 H   0  0  0  0  0  0  0  0  0  0  0  0
   10.4201    4.1581    0.0000 H   0  0  0  0  0  0  0  0  0  0  0  0
   12.7200    0.8447    0.0000 H   0  0  0  0  0  0  0  0  0  0  0  0
   10.7710   -1.2575    0.0000 H   0  0  0  0  0  0  0  0  0  0  0  0
   10.9307   -2.0384    0.0000 H   0  0  0  0  0  0  0  0  0  0  0  0
    9.0406    4.5132    0.0000 H   0  0  0  0  0  0  0  0  0  0  0  0
    8.1648    4.5557    0.0000 H   0  0  0  0  0  0  0  0  0  0  0  0
    8.1223    3.6799    0.0000 H   0  0  0  0  0  0  0  0  0  0  0  0
   11.5156   -2.7123    0.0000 H   0  0  0  0  0  0  0  0  0  0  0  0
   12.3908   -2.7650    0.0000 H   0  0  0  0  0  0  0  0  0  0  0  0
   12.4434   -1.8898    0.0000 H   0  0  0  0  0  0  0  0  0  0  0  0
 18  1  1  1  0  0  0
  1 24  1  0  0  0  0
  2 17  1  0  0  0  0
  2 32  1  0  0  0  0
  3 16  2  0  0  0  0
  4 17  2  0  0  0  0
  5 28  1  0  0  0  0
  5 36  1  0  0  0  0
  6 36  2  0  0  0  0
  7  9  1  0  0  0  0
  7 13  1  0  0  0  0
  7 16  1  0  0  0  0
  8 12  1  0  0  0  0
  8 15  1  0  0  0  0
  8 44  1  0  0  0  0
  9 10  1  0  0  0  0
  9 17  1  6  0  0  0
  9 39  1  0  0  0  0
 10 11  1  0  0  0  0
 10 40  1  0  0  0  0
 10 41  1  0  0  0  0
 11 12  2  0  0  0  0
 11 14  1  0  0  0  0
 12 13  1  0  0  0  0
 13 42  1  0  0  0  0
 13 43  1  0  0  0  0
 14 15  1  0  0  0  0
 14 19  2  0  0  0  0
 15 20  2  0  0  0  0
 16 18  1  0  0  0  0
 18 23  1  0  0  0  0
 18 45  1  0  0  0  0
 19 21  1  0  0  0  0
 19 46  1  0  0  0  0
 20 22  1  0  0  0  0
 20 47  1  0  0  0  0
 21 22  2  0  0  0  0
 21 48  1  0  0  0  0
 22 49  1  0  0  0  0
 23 50  1  0  0  0  0
 23 51  1  0  0  0  0
 23 52  1  0  0  0  0
 24 25  1  0  0  0  0
 24 29  2  0  0  0  0
 25 26  1  0  0  0  0
 25 28  2  0  0  0  0
 26 27  1  0  0  0  0
 26 34  2  0  0  0  0
 27 30  1  0  0  0  0
 27 53  1  0  0  0  0
 27 54  1  0  0  0  0
 28 33  1  0  0  0  0
 29 31  1  0  0  0  0
 29 55  1  0  0  0  0
 30 35  1  0  0  0  0
 30 56  1  0  0  0  0
 30 57  1  0  0  0  0
 31 33  2  0  0  0  0
 31 37  1  0  0  0  0
 32 58  1  0  0  0  0
 32 59  1  0  0  0  0
 32 60  1  0  0  0  0
 33 61  1  0  0  0  0
 34 36  1  0  0  0  0
 34 62  1  0  0  0  0
 35 38  1  0  0  0  0
 35 63  1  0  0  0  0
 35 64  1  0  0  0  0
 37 65  1  0  0  0  0
 37 66  1  0  0  0  0
 37 67  1  0  0  0  0
 38 68  1  0  0  0  0
 38 69  1  0  0  0  0
 38 70  1  0  0  0  0
M  END
> <PUBCHEM_COMPOUND_CID>
165412598

> <PUBCHEM_COMPOUND_CANONICALIZED>
1

> <PUBCHEM_CACTVS_COMPLEXITY>
936

> <PUBCHEM_CACTVS_HBOND_ACCEPTOR>
6

> <PUBCHEM_CACTVS_HBOND_DONOR>
1

> <PUBCHEM_CACTVS_ROTATABLE_BOND>
8

> <PUBCHEM_CACTVS_SUBSKEYS>
AAADcfB7OAAAAAAAAAAAAAAAAAAAAWAAAAA8YIEAAAAAAFiB9AAAHgAQAAAADDzhngYyzvPJlACoAyXyXAKCiCAhIiAImSH+bNgOZ/LEsb+XOijl1hXY6QeY+f+ewAABCAAKAACAAAIQABQAAAAAAAAAAA==

> <PUBCHEM_IUPAC_OPENEYE_NAME>
methyl (3S)-2-[(2R)-2-(4-butyl-7-methyl-2-oxo-chromen-5-yl)oxypropanoyl]-1,3,4,9-tetrahydropyrido[3,4-b]indole-3-carboxylate

> <PUBCHEM_IUPAC_CAS_NAME>
(3S)-2-[(2R)-2-[(4-butyl-7-methyl-2-oxo-1-benzopyran-5-yl)oxy]-1-oxopropyl]-1,3,4,9-tetrahydropyrido[3,4-b]indole-3-carboxylic acid methyl ester

> <PUBCHEM_IUPAC_NAME_MARKUP>
methyl (3<I>S</I>)-2-[(2<I>R</I>)-2-(4-butyl-7-methyl-2-oxochromen-5-yl)oxypropanoyl]-1,3,4,9-tetrahydropyrido[3,4-b]indole-3-carboxylate

> <PUBCHEM_IUPAC_NAME>
methyl (3S)-2-[(2R)-2-(4-butyl-7-methyl-2-oxochromen-5-yl)oxypropanoyl]-1,3,4,9-tetrahydropyrido[3,4-b]indole-3-carboxylate

> <PUBCHEM_IUPAC_SYSTEMATIC_NAME>
methyl (3S)-2-[(2R)-2-(4-butyl-7-methyl-2-oxidanylidene-chromen-5-yl)oxypropanoyl]-1,3,4,9-tetrahydropyrido[3,4-b]indole-3-carboxylate

> <PUBCHEM_IUPAC_TRADITIONAL_NAME>
(3S)-2-[(2R)-2-(4-butyl-2-keto-7-methyl-chromen-5-yl)oxypropanoyl]-1,3,4,9-tetrahydro-beta-carboline-3-carboxylic acid methyl ester

> <PUBCHEM_IUPAC_INCHI>
InChI=1S/C30H32N2O6/c1-5-6-9-19-14-27(33)38-26-13-17(2)12-25(28(19)26)37-18(3)29(34)32-16-23-21(15-24(32)30(35)36-4)20-10-7-8-11-22(20)31-23/h7-8,10-14,18,24,31H,5-6,9,15-16H2,1-4H3/t18-,24+/m1/s1

> <PUBCHEM_IUPAC_INCHIKEY>
BATLVNNXAABWSL-KOSHJBKYSA-N

> <PUBCHEM_XLOGP3_AA>
5.3

> <PUBCHEM_EXACT_MASS>
516.22603674

> <PUBCHEM_MOLECULAR_FORMULA>
C30H32N2O6

> <PUBCHEM_MOLECULAR_WEIGHT>
516.6

> <PUBCHEM_OPENEYE_CAN_SMILES>
CCCCC1=CC(=O)OC2=C1C(=CC(=C2)C)OC(C)C(=O)N3CC4=C(CC3C(=O)OC)C5=CC=CC=C5N4

> <PUBCHEM_OPENEYE_ISO_SMILES>
CCCCC1=CC(=O)OC2=C1C(=CC(=C2)C)O[C@H](C)C(=O)N3CC4=C(C[C@H]3C(=O)OC)C5=CC=CC=C5N4

> <PUBCHEM_CACTVS_TPSA>
97.9

> <PUBCHEM_MONOISOTOPIC_WEIGHT>
516.22603674

> <PUBCHEM_TOTAL_CHARGE>
0

> <PUBCHEM_HEAVY_ATOM_COUNT>
38

> <PUBCHEM_ATOM_DEF_STEREO_COUNT>
2

> <PUBCHEM_ATOM_UDEF_STEREO_COUNT>
0

> <PUBCHEM_BOND_DEF_STEREO_COUNT>
0

> <PUBCHEM_BOND_UDEF_STEREO_COUNT>
0

> <PUBCHEM_ISOTOPIC_ATOM_COUNT>
0

> <PUBCHEM_COMPONENT_COUNT>
1

> <PUBCHEM_CACTVS_TAUTO_COUNT>
-1

> <PUBCHEM_COORDINATE_TYPE>
1
5
255

> <PUBCHEM_BONDANNOTATIONS>
18  1  5
11  12  8
11  14  8
14  15  8
14  19  8
15  20  8
19  21  8
20  22  8
21  22  8
24  25  8
24  29  8
25  26  8
25  28  8
26  34  8
28  33  8
29  31  8
31  33  8
34  36  8
5  28  8
5  36  8
8  12  8
8  15  8
9  17  6

$$$$
168264823
  -OEChem-08172310442D

 57 60  0     1  0  0  0  0  0999 V2000
    2.0000   -0.8560    0.0000 Cl  0  0  0  0  0  0  0  0  0  0  0  0
   16.5561   -2.4540    0.0000 F   0  0  0  0  0  0  0  0  0  0  0  0
   16.9221   -1.0880    0.0000 F   0  0  0  0  0  0  0  0  0  0  0  0
   15.1901   -2.0880    0.0000 F   0  0  0  0  0  0  0  0  0  0  0  0
    3.7320    2.1440    0.0000 O   0  0  0  0  0  0  0  0  0  0  0  0
    6.3301    0.6440    0.0000 N   0  0  3  0  0  0  0  0  0  0  0  0
    8.9282    1.1440    0.0000 N   0  0  0  0  0  0  0  0  0  0  0  0
   12.4725   -0.6607    0.0000 N   0  0  0  0  0  0  0  0  0  0  0  0
   12.4725    0.9488    0.0000 N   0  0  0  0  0  0  0  0  0  0  0  0
    9.7942   -0.3560    0.0000 N   0  0  0  0  0  0  0  0  0  0  0  0
    7.1962    1.1440    0.0000 C   0  0  0  0  0  0  0  0  0  0  0  0
    5.4641    1.1440    0.0000 C   0  0  0  0  0  0  0  0  0  0  0  0
    8.0622    0.6440    0.0000 C   0  0  0  0  0  0  0  0  0  0  0  0
    6.3301   -0.3560    0.0000 C   0  0  0  0  0  0  0  0  0  0  0  0
    4.5981    0.6440    0.0000 C   0  0  0  0  0  0  0  0  0  0  0  0
    7.1962   -0.8560    0.0000 C   0  0  0  0  0  0  0  0  0  0  0  0
    9.7942    0.6440    0.0000 C   0  0  0  0  0  0  0  0  0  0  0  0
   11.5263    0.6440    0.0000 C   0  0  0  0  0  0  0  0  0  0  0  0
   11.5263   -0.3560    0.0000 C   0  0  0  0  0  0  0  0  0  0  0  0
    3.7320    1.1440    0.0000 C   0  0  0  0  0  0  0  0  0  0  0  0
   10.6603    1.1440    0.0000 C   0  0  0  0  0  0  0  0  0  0  0  0
    4.5981   -0.3560    0.0000 C   0  0  0  0  0  0  0  0  0  0  0  0
   13.0561    0.1440    0.0000 C   0  0  0  0  0  0  0  0  0  0  0  0
   14.0561    0.1440    0.0000 C   0  0  0  0  0  0  0  0  0  0  0  0
   10.6603   -0.8560    0.0000 C   0  0  0  0  0  0  0  0  0  0  0  0
    2.8660    0.6440    0.0000 C   0  0  0  0  0  0  0  0  0  0  0  0
    3.7320   -0.8560    0.0000 C   0  0  0  0  0  0  0  0  0  0  0  0
    2.8660   -0.3560    0.0000 C   0  0  0  0  0  0  0  0  0  0  0  0
   14.5561   -0.7220    0.0000 C   0  0  0  0  0  0  0  0  0  0  0  0
   14.5561    1.0101    0.0000 C   0  0  0  0  0  0  0  0  0  0  0  0
   15.5561   -0.7220    0.0000 C   0  0  0  0  0  0  0  0  0  0  0  0
   15.5561    1.0101    0.0000 C   0  0  0  0  0  0  0  0  0  0  0  0
   16.0561    0.1440    0.0000 C   0  0  0  0  0  0  0  0  0  0  0  0
   16.0561   -1.5880    0.0000 C   0  0  0  0  0  0  0  0  0  0  0  0
    7.5947    1.6190    0.0000 H   0  0  0  0  0  0  0  0  0  0  0  0
    6.7976    1.6190    0.0000 H   0  0  0  0  0  0  0  0  0  0  0  0
    5.8626    1.6190    0.0000 H   0  0  0  0  0  0  0  0  0  0  0  0
    5.0656    1.6190    0.0000 H   0  0  0  0  0  0  0  0  0  0  0  0
    7.6636    0.1691    0.0000 H   0  0  0  0  0  0  0  0  0  0  0  0
    8.4607    0.1691    0.0000 H   0  0  0  0  0  0  0  0  0  0  0  0
    5.7196   -0.2483    0.0000 H   0  0  0  0  0  0  0  0  0  0  0  0
    6.1181   -0.9386    0.0000 H   0  0  0  0  0  0  0  0  0  0  0  0
    8.9282    1.7640    0.0000 H   0  0  0  0  0  0  0  0  0  0  0  0
    6.8862   -1.3929    0.0000 H   0  0  0  0  0  0  0  0  0  0  0  0
    7.7331   -1.1660    0.0000 H   0  0  0  0  0  0  0  0  0  0  0  0
    7.5062   -0.3190    0.0000 H   0  0  0  0  0  0  0  0  0  0  0  0
   10.6603    1.7640    0.0000 H   0  0  0  0  0  0  0  0  0  0  0  0
    5.1350   -0.6660    0.0000 H   0  0  0  0  0  0  0  0  0  0  0  0
   12.6651   -1.2500    0.0000 H   0  0  0  0  0  0  0  0  0  0  0  0
   10.6603   -1.4760    0.0000 H   0  0  0  0  0  0  0  0  0  0  0  0
    2.3291    0.9540    0.0000 H   0  0  0  0  0  0  0  0  0  0  0  0
    3.7320   -1.4760    0.0000 H   0  0  0  0  0  0  0  0  0  0  0  0
   14.2461   -1.2589    0.0000 H   0  0  0  0  0  0  0  0  0  0  0  0
   14.2461    1.5470    0.0000 H   0  0  0  0  0  0  0  0  0  0  0  0
   15.8661    1.5470    0.0000 H   0  0  0  0  0  0  0  0  0  0  0  0
   16.6761    0.1440    0.0000 H   0  0  0  0  0  0  0  0  0  0  0  0
    3.1951    2.4540    0.0000 H   0  0  0  0  0  0  0  0  0  0  0  0
  1 28  1  0  0  0  0
  2 34  1  0  0  0  0
  3 34  1  0  0  0  0
  4 34  1  0  0  0  0
  5 20  1  0  0  0  0
  5 57  1  0  0  0  0
  6 11  1  0  0  0  0
  6 12  1  0  0  0  0
  6 14  1  0  0  0  0
  7 13  1  0  0  0  0
  7 17  1  0  0  0  0
  7 43  1  0  0  0  0
  8 19  1  0  0  0  0
  8 23  1  0  0  0  0
  8 49  1  0  0  0  0
  9 18  1  0  0  0  0
  9 23  2  0  0  0  0
 10 17  2  0  0  0  0
 10 25  1  0  0  0  0
 11 13  1  0  0  0  0
 11 35  1  0  0  0  0
 11 36  1  0  0  0  0
 12 15  1  0  0  0  0
 12 37  1  0  0  0  0
 12 38  1  0  0  0  0
 13 39  1  0  0  0  0
 13 40  1  0  0  0  0
 14 16  1  0  0  0  0
 14 41  1  0  0  0  0
 14 42  1  0  0  0  0
 15 20  2  0  0  0  0
 15 22  1  0  0  0  0
 16 44  1  0  0  0  0
 16 45  1  0  0  0  0
 16 46  1  0  0  0  0
 17 21  1  0  0  0  0
 18 19  1  0  0  0  0
 18 21  2  0  0  0  0
 19 25  2  0  0  0  0
 20 26  1  0  0  0  0
 21 47  1  0  0  0  0
 22 27  2  0  0  0  0
 22 48  1  0  0  0  0
 23 24  1  0  0  0  0
 24 29  2  0  0  0  0
 24 30  1  0  0  0  0
 25 50  1  0  0  0  0
 26 28  2  0  0  0  0
 26 51  1  0  0  0  0
 27 28  1  0  0  0  0
 27 52  1  0  0  0  0
 29 31  1  0  0  0  0
 29 53  1  0  0  0  0
 30 32  2  0  0  0  0
 30 54  1  0  0  0  0
 31 33  2  0  0  0  0
 31 34  1  0  0  0  0
 32 33  1  0  0  0  0
 32 55  1  0  0  0  0
 33 56  1  0  0  0  0
M  END
> <PUBCHEM_COMPOUND_CID>
168264823

> <PUBCHEM_COMPOUND_CANONICALIZED>
1

> <PUBCHEM_CACTVS_COMPLEXITY>
644

> <PUBCHEM_CACTVS_HBOND_ACCEPTOR>
8

> <PUBCHEM_CACTVS_HBOND_DONOR>
3

> <PUBCHEM_CACTVS_ROTATABLE_BOND>
8

> <PUBCHEM_CACTVS_SUBSKEYS>
AAADceB7oYAEAAAAAAAAAAAAAAAAAWAAAAA8YIAAAAAAAFgB/AAAHwIQCAAADA7BnzQ/9rfJkgCgAzZnZACCgC2xN6AJ2aA+fpiIbuLD29OUdAhu0BPI2CeQwGAOBAACAQAIAAAIAAQCABAAAAAAAAAAAA==

> <PUBCHEM_IUPAC_OPENEYE_NAME>
5-chloro-2-[[ethyl-[2-[[2-[3-(trifluoromethyl)phenyl]-3H-imidazo[4,5-c]pyridin-6-yl]amino]ethyl]amino]methyl]phenol

> <PUBCHEM_IUPAC_CAS_NAME>
5-chloro-2-[[ethyl-[2-[[2-[3-(trifluoromethyl)phenyl]-3H-imidazo[4,5-c]pyridin-6-yl]amino]ethyl]amino]methyl]phenol

> <PUBCHEM_IUPAC_NAME_MARKUP>
5-chloro-2-[[ethyl-[2-[[2-[3-(trifluoromethyl)phenyl]-3<I>H</I>-imidazo[4,5-c]pyridin-6-yl]amino]ethyl]amino]methyl]phenol

> <PUBCHEM_IUPAC_NAME>
5-chloro-2-[[ethyl-[2-[[2-[3-(trifluoromethyl)phenyl]-3H-imidazo[4,5-c]pyridin-6-yl]amino]ethyl]amino]methyl]phenol

> <PUBCHEM_IUPAC_SYSTEMATIC_NAME>
5-chloranyl-2-[[ethyl-[2-[[2-[3-(trifluoromethyl)phenyl]-3H-imidazo[4,5-c]pyridin-6-yl]amino]ethyl]amino]methyl]phenol

> <PUBCHEM_IUPAC_TRADITIONAL_NAME>
5-chloro-2-[[ethyl-[2-[[2-[3-(trifluoromethyl)phenyl]-3H-imidazo[4,5-c]pyridin-6-yl]amino]ethyl]amino]methyl]phenol

> <PUBCHEM_IUPAC_INCHI>
InChI=1S/C24H23ClF3N5O/c1-2-33(14-16-6-7-18(25)11-21(16)34)9-8-29-22-12-19-20(13-30-22)32-23(31-19)15-4-3-5-17(10-15)24(26,27)28/h3-7,10-13,34H,2,8-9,14H2,1H3,(H,29,30)(H,31,32)

> <PUBCHEM_IUPAC_INCHIKEY>
BUWIEPJUOXEIHY-UHFFFAOYSA-N

> <PUBCHEM_XLOGP3_AA>
5.5

> <PUBCHEM_EXACT_MASS>
489.1543226

> <PUBCHEM_MOLECULAR_FORMULA>
C24H23ClF3N5O

> <PUBCHEM_MOLECULAR_WEIGHT>
489.9

> <PUBCHEM_OPENEYE_CAN_SMILES>
CCN(CCNC1=NC=C2C(=C1)N=C(N2)C3=CC(=CC=C3)C(F)(F)F)CC4=C(C=C(C=C4)Cl)O

> <PUBCHEM_OPENEYE_ISO_SMILES>
CCN(CCNC1=NC=C2C(=C1)N=C(N2)C3=CC(=CC=C3)C(F)(F)F)CC4=C(C=C(C=C4)Cl)O

> <PUBCHEM_CACTVS_TPSA>
77.1

> <PUBCHEM_MONOISOTOPIC_WEIGHT>
489.1543226

> <PUBCHEM_TOTAL_CHARGE>
0

> <PUBCHEM_HEAVY_ATOM_COUNT>
34

> <PUBCHEM_ATOM_DEF_STEREO_COUNT>
0

> <PUBCHEM_ATOM_UDEF_STEREO_COUNT>
0

> <PUBCHEM_BOND_DEF_STEREO_COUNT>
0

> <PUBCHEM_BOND_UDEF_STEREO_COUNT>
0

> <PUBCHEM_ISOTOPIC_ATOM_COUNT>
0

> <PUBCHEM_COMPONENT_COUNT>
1

> <PUBCHEM_CACTVS_TAUTO_COUNT>
-1

> <PUBCHEM_COORDINATE_TYPE>
1
5
255

> <PUBCHEM_BONDANNOTATIONS>
10  17  8
10  25  8
15  20  8
15  22  8
17  21  8
18  19  8
18  21  8
19  25  8
20  26  8
22  27  8
24  29  8
24  30  8
26  28  8
27  28  8
29  31  8
30  32  8
31  33  8
32  33  8
8  19  8
8  23  8
9  18  8
9  23  8

$$$$
166642594
  -OEChem-08172310442D

 63 63  0     0  0  0  0  0  0999 V2000
    5.0084    2.4980    0.0000 Cl  0  0  0  0  0  0  0  0  0  0  0  0
    5.0084    0.0000    0.0000 Cl  0  0  0  0  0  0  0  0  0  0  0  0
    5.8133   10.2283    0.0000 S   0  0  0  0  0  0  0  0  0  0  0  0
    2.2690   12.0330    0.0000 N   0  0  0  0  0  0  0  0  0  0  0  0
    4.0010    9.0330    0.0000 N   0  0  0  0  0  0  0  0  0  0  0  0
    3.1350   10.5330    0.0000 N   0  0  0  0  0  0  0  0  0  0  0  0
    4.0010   12.0330    0.0000 N   0  0  0  0  0  0  0  0  0  0  0  0
    2.2690    6.0330    0.0000 N   0  0  0  0  0  0  0  0  0  0  0  0
    1.4030   11.5330    0.0000 C   0  0  0  0  0  0  0  0  0  0  0  0
    0.5369   11.0330    0.0000 C   0  0  0  0  0  0  0  0  0  0  0  0
    0.9030   12.3990    0.0000 C   0  0  0  0  0  0  0  0  0  0  0  0
    1.9030   10.6670    0.0000 C   0  0  0  0  0  0  0  0  0  0  0  0
    3.1350    7.5330    0.0000 C   0  0  0  0  0  0  0  0  0  0  0  0
    3.1350    8.5330    0.0000 C   0  0  0  0  0  0  0  0  0  0  0  0
    3.1350   11.5330    0.0000 C   0  0  0  0  0  0  0  0  0  0  0  0
    4.0010   10.0330    0.0000 C   0  0  0  0  0  0  0  0  0  0  0  0
    4.8671   10.5330    0.0000 C   0  0  0  0  0  0  0  0  0  0  0  0
    2.2690    7.0330    0.0000 C   0  0  0  0  0  0  0  0  0  0  0  0
    4.8671   11.5330    0.0000 C   0  0  0  0  0  0  0  0  0  0  0  0
    6.3969   11.0330    0.0000 C   0  0  0  0  0  0  0  0  0  0  0  0
    5.8133   11.8377    0.0000 C   0  0  0  0  0  0  0  0  0  0  0  0
    7.3969   11.0330    0.0000 C   0  0  0  0  0  0  0  0  0  0  0  0
    1.4030    5.5330    0.0000 C   0  0  0  0  0  0  0  0  0  0  0  0
    3.1350    5.5330    0.0000 C   0  0  0  0  0  0  0  0  0  0  0  0
    7.8969   11.8990    0.0000 C   0  0  0  0  0  0  0  0  0  0  0  0
    7.8969   10.1670    0.0000 C   0  0  0  0  0  0  0  0  0  0  0  0
    9.3969   11.0330    0.0000 C   0  0  0  0  0  0  0  0  0  0  0  0
    8.8969   11.8990    0.0000 C   0  0  0  0  0  0  0  0  0  0  0  0
    8.8969   10.1670    0.0000 C   0  0  0  0  0  0  0  0  0  0  0  0
   10.3969   11.0330    0.0000 C   0  0  0  0  0  0  0  0  0  0  0  0
    2.2690   12.6530    0.0000 H   0  0  0  0  0  0  0  0  0  0  0  0
    0.2269   11.5699    0.0000 H   0  0  0  0  0  0  0  0  0  0  0  0
    0.0000   10.7230    0.0000 H   0  0  0  0  0  0  0  0  0  0  0  0
    0.8469   10.4961    0.0000 H   0  0  0  0  0  0  0  0  0  0  0  0
    1.4399   12.7090    0.0000 H   0  0  0  0  0  0  0  0  0  0  0  0
    0.5930   12.9360    0.0000 H   0  0  0  0  0  0  0  0  0  0  0  0
    0.3660   12.0890    0.0000 H   0  0  0  0  0  0  0  0  0  0  0  0
    1.3660   10.3570    0.0000 H   0  0  0  0  0  0  0  0  0  0  0  0
    2.2130   10.1300    0.0000 H   0  0  0  0  0  0  0  0  0  0  0  0
    2.4399   10.9770    0.0000 H   0  0  0  0  0  0  0  0  0  0  0  0
    3.3471    6.9504    0.0000 H   0  0  0  0  0  0  0  0  0  0  0  0
    3.7456    7.6406    0.0000 H   0  0  0  0  0  0  0  0  0  0  0  0
    2.9230    9.1156    0.0000 H   0  0  0  0  0  0  0  0  0  0  0  0
    2.5244    8.4253    0.0000 H   0  0  0  0  0  0  0  0  0  0  0  0
    2.0569    7.6156    0.0000 H   0  0  0  0  0  0  0  0  0  0  0  0
    1.6584    6.9253    0.0000 H   0  0  0  0  0  0  0  0  0  0  0  0
    4.5380    8.7230    0.0000 H   0  0  0  0  0  0  0  0  0  0  0  0
    6.0059   12.4270    0.0000 H   0  0  0  0  0  0  0  0  0  0  0  0
    1.0930    6.0699    0.0000 H   0  0  0  0  0  0  0  0  0  0  0  0
    0.8660    5.2230    0.0000 H   0  0  0  0  0  0  0  0  0  0  0  0
    1.7130    4.9960    0.0000 H   0  0  0  0  0  0  0  0  0  0  0  0
    2.8250    4.9960    0.0000 H   0  0  0  0  0  0  0  0  0  0  0  0
    3.6720    5.2230    0.0000 H   0  0  0  0  0  0  0  0  0  0  0  0
    3.4450    6.0699    0.0000 H   0  0  0  0  0  0  0  0  0  0  0  0
    7.5869   12.4360    0.0000 H   0  0  0  0  0  0  0  0  0  0  0  0
    7.5869    9.6300    0.0000 H   0  0  0  0  0  0  0  0  0  0  0  0
    9.2069   12.4360    0.0000 H   0  0  0  0  0  0  0  0  0  0  0  0
    9.2069    9.6300    0.0000 H   0  0  0  0  0  0  0  0  0  0  0  0
   10.3969   10.4130    0.0000 H   0  0  0  0  0  0  0  0  0  0  0  0
   11.0169   11.0330    0.0000 H   0  0  0  0  0  0  0  0  0  0  0  0
   10.3969   11.6530    0.0000 H   0  0  0  0  0  0  0  0  0  0  0  0
    6.0084    2.4980    0.0000 H   0  0  0  0  0  0  0  0  0  0  0  0
    6.0084    0.0000    0.0000 H   0  0  0  0  0  0  0  0  0  0  0  0
  1 62  1  0  0  0  0
  2 63  1  0  0  0  0
  3 17  1  0  0  0  0
  3 20  1  0  0  0  0
  4  9  1  0  0  0  0
  4 15  1  0  0  0  0
  4 31  1  0  0  0  0
  5 14  1  0  0  0  0
  5 16  1  0  0  0  0
  5 47  1  0  0  0  0
  6 15  1  0  0  0  0
  6 16  2  0  0  0  0
  7 15  2  0  0  0  0
  7 19  1  0  0  0  0
  8 18  1  0  0  0  0
  8 23  1  0  0  0  0
  8 24  1  0  0  0  0
  9 10  1  0  0  0  0
  9 11  1  0  0  0  0
  9 12  1  0  0  0  0
 10 32  1  0  0  0  0
 10 33  1  0  0  0  0
 10 34  1  0  0  0  0
 11 35  1  0  0  0  0
 11 36  1  0  0  0  0
 11 37  1  0  0  0  0
 12 38  1  0  0  0  0
 12 39  1  0  0  0  0
 12 40  1  0  0  0  0
 13 14  1  0  0  0  0
 13 18  1  0  0  0  0
 13 41  1  0  0  0  0
 13 42  1  0  0  0  0
 14 43  1  0  0  0  0
 14 44  1  0  0  0  0
 16 17  1  0  0  0  0
 17 19  2  0  0  0  0
 18 45  1  0  0  0  0
 18 46  1  0  0  0  0
 19 21  1  0  0  0  0
 20 21  2  0  0  0  0
 20 22  1  0  0  0  0
 21 48  1  0  0  0  0
 22 25  2  0  0  0  0
 22 26  1  0  0  0  0
 23 49  1  0  0  0  0
 23 50  1  0  0  0  0
 23 51  1  0  0  0  0
 24 52  1  0  0  0  0
 24 53  1  0  0  0  0
 24 54  1  0  0  0  0
 25 28  1  0  0  0  0
 25 55  1  0  0  0  0
 26 29  2  0  0  0  0
 26 56  1  0  0  0  0
 27 28  2  0  0  0  0
 27 29  1  0  0  0  0
 27 30  1  0  0  0  0
 28 57  1  0  0  0  0
 29 58  1  0  0  0  0
 30 59  1  0  0  0  0
 30 60  1  0  0  0  0
 30 61  1  0  0  0  0
M  END
> <PUBCHEM_COMPOUND_CID>
166642594

> <PUBCHEM_COMPOUND_CANONICALIZED>
1

> <PUBCHEM_CACTVS_COMPLEXITY>
472

> <PUBCHEM_CACTVS_HBOND_ACCEPTOR>
6

> <PUBCHEM_CACTVS_HBOND_DONOR>
4

> <PUBCHEM_CACTVS_ROTATABLE_BOND>
8

> <PUBCHEM_CACTVS_SUBSKEYS>
AAADcfB7gABGAAAAAAAAAAAAAAAAASAAAAA8QAAAAAAAAFgB/AAAHAQQAAAADIjBXgQz8bfIEAikAyZiZACDoKkhCrBJmLw4ZJiIKCLg2dGEJAxokALoyCcQgMAOQAAAAAAAAACAAAAAAAAAAAAAAAAAAA==

> <PUBCHEM_IUPAC_OPENEYE_NAME>
N2-tert-butyl-N4-[3-(dimethylamino)propyl]-6-(p-tolyl)thieno[3,2-d]pyrimidine-2,4-diamine;dihydrochloride

> <PUBCHEM_IUPAC_CAS_NAME>
N2-tert-butyl-N4-[3-(dimethylamino)propyl]-6-(4-methylphenyl)thieno[3,2-d]pyrimidine-2,4-diamine;dihydrochloride

> <PUBCHEM_IUPAC_NAME_MARKUP>
2-<I>N</I>-<I>tert</I>-butyl-4-<I>N</I>-[3-(dimethylamino)propyl]-6-(4-methylphenyl)thieno[3,2-d]pyrimidine-2,4-diamine;dihydrochloride

> <PUBCHEM_IUPAC_NAME>
2-N-tert-butyl-4-N-[3-(dimethylamino)propyl]-6-(4-methylphenyl)thieno[3,2-d]pyrimidine-2,4-diamine;dihydrochloride

> <PUBCHEM_IUPAC_SYSTEMATIC_NAME>
N2-tert-butyl-N4-[3-(dimethylamino)propyl]-6-(4-methylphenyl)thieno[3,2-d]pyrimidine-2,4-diamine;dihydrochloride

> <PUBCHEM_IUPAC_TRADITIONAL_NAME>
3-[[2-(tert-butylamino)-6-(p-tolyl)thieno[3,2-d]pyrimidin-4-yl]amino]propyl-dimethyl-amine;dihydrochloride

> <PUBCHEM_IUPAC_INCHI>
InChI=1S/C22H31N5S.2ClH/c1-15-8-10-16(11-9-15)18-14-17-19(28-18)20(23-12-7-13-27(5)6)25-21(24-17)26-22(2,3)4;;/h8-11,14H,7,12-13H2,1-6H3,(H2,23,24,25,26);2*1H

> <PUBCHEM_IUPAC_INCHIKEY>
ZNYGZYXFJVIZLI-UHFFFAOYSA-N

> <PUBCHEM_EXACT_MASS>
469.1833726

> <PUBCHEM_MOLECULAR_FORMULA>
C22H33Cl2N5S

> <PUBCHEM_MOLECULAR_WEIGHT>
470.5

> <PUBCHEM_OPENEYE_CAN_SMILES>
CC1=CC=C(C=C1)C2=CC3=C(S2)C(=NC(=N3)NC(C)(C)C)NCCCN(C)C.Cl.Cl

> <PUBCHEM_OPENEYE_ISO_SMILES>
CC1=CC=C(C=C1)C2=CC3=C(S2)C(=NC(=N3)NC(C)(C)C)NCCCN(C)C.Cl.Cl

> <PUBCHEM_CACTVS_TPSA>
81.3

> <PUBCHEM_MONOISOTOPIC_WEIGHT>
469.1833726

> <PUBCHEM_TOTAL_CHARGE>
0

> <PUBCHEM_HEAVY_ATOM_COUNT>
30

> <PUBCHEM_ATOM_DEF_STEREO_COUNT>
0

> <PUBCHEM_ATOM_UDEF_STEREO_COUNT>
0

> <PUBCHEM_BOND_DEF_STEREO_COUNT>
0

> <PUBCHEM_BOND_UDEF_STEREO_COUNT>
0

> <PUBCHEM_ISOTOPIC_ATOM_COUNT>
0

> <PUBCHEM_COMPONENT_COUNT>
3

> <PUBCHEM_CACTVS_TAUTO_COUNT>
-1

> <PUBCHEM_COORDINATE_TYPE>
1
5
255

> <PUBCHEM_BONDANNOTATIONS>
16  17  8
17  19  8
19  21  8
20  21  8
22  25  8
22  26  8
25  28  8
26  29  8
27  28  8
27  29  8
3  17  8
3  20  8
6  15  8
6  16  8
7  15  8
7  19  8

$$$$
163196196
  -OEChem-08172310442D

 66 69  0     1  0  0  0  0  0999 V2000
    2.0000   -0.6308    0.0000 Br  0  0  0  0  0  0  0  0  0  0  0  0
    7.2622    3.3450    0.0000 O   0  0  0  0  0  0  0  0  0  0  0  0
    7.2622   -2.6550    0.0000 O   0  0  0  0  0  0  0  0  0  0  0  0
    8.1282   -1.1550    0.0000 N   0  0  0  0  0  0  0  0  0  0  0  0
    5.5301   -2.6550    0.0000 N   0  0  0  0  0  0  0  0  0  0  0  0
    9.2109   -2.3574    0.0000 N   0  0  0  0  0  0  0  0  0  0  0  0
    5.5301    2.3450    0.0000 C   0  0  0  0  0  0  0  0  0  0  0  0
    8.9942    2.3450    0.0000 C   0  0  0  0  0  0  0  0  0  0  0  0
    6.3961    1.8450    0.0000 C   0  0  0  0  0  0  0  0  0  0  0  0
    8.1282    1.8450    0.0000 C   0  0  0  0  0  0  0  0  0  0  0  0
    7.2622    0.3450    0.0000 C   0  0  0  0  0  0  0  0  0  0  0  0
    7.2622    2.3450    0.0000 C   0  0  0  0  0  0  0  0  0  0  0  0
    7.2622   -0.6550    0.0000 C   0  0  3  0  0  0  0  0  0  0  0  0
    6.3961    0.8450    0.0000 C   0  0  0  0  0  0  0  0  0  0  0  0
    8.1282    0.8450    0.0000 C   0  0  0  0  0  0  0  0  0  0  0  0
    4.6641    2.8450    0.0000 C   0  0  0  0  0  0  0  0  0  0  0  0
    6.0301    3.2110    0.0000 C   0  0  0  0  0  0  0  0  0  0  0  0
    5.0301    1.4790    0.0000 C   0  0  0  0  0  0  0  0  0  0  0  0
    9.8602    2.8450    0.0000 C   0  0  0  0  0  0  0  0  0  0  0  0
    9.4942    1.4790    0.0000 C   0  0  0  0  0  0  0  0  0  0  0  0
    8.4942    3.2110    0.0000 C   0  0  0  0  0  0  0  0  0  0  0  0
    6.3961   -1.1550    0.0000 C   0  0  0  0  0  0  0  0  0  0  0  0
    5.5301   -0.6550    0.0000 C   0  0  0  0  0  0  0  0  0  0  0  0
    6.3961   -2.1550    0.0000 C   0  0  0  0  0  0  0  0  0  0  0  0
    9.0418   -0.7483    0.0000 C   0  0  0  0  0  0  0  0  0  0  0  0
    8.2327   -2.1495    0.0000 C   0  0  0  0  0  0  0  0  0  0  0  0
    4.6641   -1.1550    0.0000 C   0  0  0  0  0  0  0  0  0  0  0  0
    4.6641   -2.1550    0.0000 C   0  0  0  0  0  0  0  0  0  0  0  0
    9.7109   -1.4914    0.0000 C   0  0  0  0  0  0  0  0  0  0  0  0
    3.7702   -0.6203    0.0000 C   0  0  0  0  0  0  0  0  0  0  0  0
    3.7702   -2.6897    0.0000 C   0  0  0  0  0  0  0  0  0  0  0  0
    2.8641   -1.1342    0.0000 C   0  0  0  0  0  0  0  0  0  0  0  0
    2.8641   -2.1758    0.0000 C   0  0  0  0  0  0  0  0  0  0  0  0
    7.2622   -3.6550    0.0000 C   0  0  0  0  0  0  0  0  0  0  0  0
    6.7252   -0.3450    0.0000 H   0  0  0  0  0  0  0  0  0  0  0  0
    5.8592    0.5350    0.0000 H   0  0  0  0  0  0  0  0  0  0  0  0
    8.6651    0.5350    0.0000 H   0  0  0  0  0  0  0  0  0  0  0  0
    4.9741    3.3819    0.0000 H   0  0  0  0  0  0  0  0  0  0  0  0
    4.1272    3.1550    0.0000 H   0  0  0  0  0  0  0  0  0  0  0  0
    4.3541    2.3081    0.0000 H   0  0  0  0  0  0  0  0  0  0  0  0
    6.5671    2.9010    0.0000 H   0  0  0  0  0  0  0  0  0  0  0  0
    6.3401    3.7480    0.0000 H   0  0  0  0  0  0  0  0  0  0  0  0
    5.4932    3.5210    0.0000 H   0  0  0  0  0  0  0  0  0  0  0  0
    4.4932    1.7890    0.0000 H   0  0  0  0  0  0  0  0  0  0  0  0
    4.7201    0.9420    0.0000 H   0  0  0  0  0  0  0  0  0  0  0  0
    5.5671    1.1690    0.0000 H   0  0  0  0  0  0  0  0  0  0  0  0
   10.1703    2.3081    0.0000 H   0  0  0  0  0  0  0  0  0  0  0  0
   10.3972    3.1550    0.0000 H   0  0  0  0  0  0  0  0  0  0  0  0
    9.5502    3.3819    0.0000 H   0  0  0  0  0  0  0  0  0  0  0  0
    8.9573    1.1690    0.0000 H   0  0  0  0  0  0  0  0  0  0  0  0
    9.8042    0.9420    0.0000 H   0  0  0  0  0  0  0  0  0  0  0  0
   10.0312    1.7890    0.0000 H   0  0  0  0  0  0  0  0  0  0  0  0
    9.0312    3.5210    0.0000 H   0  0  0  0  0  0  0  0  0  0  0  0
    8.1842    3.7480    0.0000 H   0  0  0  0  0  0  0  0  0  0  0  0
    7.9573    2.9010    0.0000 H   0  0  0  0  0  0  0  0  0  0  0  0
    7.7991    3.6550    0.0000 H   0  0  0  0  0  0  0  0  0  0  0  0
    5.5301   -0.0350    0.0000 H   0  0  0  0  0  0  0  0  0  0  0  0
    9.1706   -0.1418    0.0000 H   0  0  0  0  0  0  0  0  0  0  0  0
    7.7720   -2.5644    0.0000 H   0  0  0  0  0  0  0  0  0  0  0  0
   10.3275   -1.4266    0.0000 H   0  0  0  0  0  0  0  0  0  0  0  0
    3.7773   -0.0004    0.0000 H   0  0  0  0  0  0  0  0  0  0  0  0
    3.7773   -3.3096    0.0000 H   0  0  0  0  0  0  0  0  0  0  0  0
    2.3284   -2.4879    0.0000 H   0  0  0  0  0  0  0  0  0  0  0  0
    6.6422   -3.6550    0.0000 H   0  0  0  0  0  0  0  0  0  0  0  0
    7.2622   -4.2750    0.0000 H   0  0  0  0  0  0  0  0  0  0  0  0
    7.8822   -3.6550    0.0000 H   0  0  0  0  0  0  0  0  0  0  0  0
  1 32  1  0  0  0  0
  2 12  1  0  0  0  0
  2 56  1  0  0  0  0
  3 24  1  0  0  0  0
  3 34  1  0  0  0  0
  4 13  1  0  0  0  0
  4 25  1  0  0  0  0
  4 26  1  0  0  0  0
  5 24  1  0  0  0  0
  5 28  2  0  0  0  0
  6 26  2  0  0  0  0
  6 29  1  0  0  0  0
  7  9  1  0  0  0  0
  7 16  1  0  0  0  0
  7 17  1  0  0  0  0
  7 18  1  0  0  0  0
  8 10  1  0  0  0  0
  8 19  1  0  0  0  0
  8 20  1  0  0  0  0
  8 21  1  0  0  0  0
  9 12  2  0  0  0  0
  9 14  1  0  0  0  0
 10 12  1  0  0  0  0
 10 15  2  0  0  0  0
 11 13  1  0  0  0  0
 11 14  2  0  0  0  0
 11 15  1  0  0  0  0
 13 22  1  0  0  0  0
 13 35  1  0  0  0  0
 14 36  1  0  0  0  0
 15 37  1  0  0  0  0
 16 38  1  0  0  0  0
 16 39  1  0  0  0  0
 16 40  1  0  0  0  0
 17 41  1  0  0  0  0
 17 42  1  0  0  0  0
 17 43  1  0  0  0  0
 18 44  1  0  0  0  0
 18 45  1  0  0  0  0
 18 46  1  0  0  0  0
 19 47  1  0  0  0  0
 19 48  1  0  0  0  0
 19 49  1  0  0  0  0
 20 50  1  0  0  0  0
 20 51  1  0  0  0  0
 20 52  1  0  0  0  0
 21 53  1  0  0  0  0
 21 54  1  0  0  0  0
 21 55  1  0  0  0  0
 22 23  1  0  0  0  0
 22 24  2  0  0  0  0
 23 27  2  0  0  0  0
 23 57  1  0  0  0  0
 25 29  2  0  0  0  0
 25 58  1  0  0  0  0
 26 59  1  0  0  0  0
 27 28  1  0  0  0  0
 27 30  1  0  0  0  0
 28 31  1  0  0  0  0
 29 60  1  0  0  0  0
 30 32  2  0  0  0  0
 30 61  1  0  0  0  0
 31 33  2  0  0  0  0
 31 62  1  0  0  0  0
 32 33  1  0  0  0  0
 33 63  1  0  0  0  0
 34 64  1  0  0  0  0
 34 65  1  0  0  0  0
 34 66  1  0  0  0  0
M  END
> <PUBCHEM_COMPOUND_CID>
163196196

> <PUBCHEM_COMPOUND_CANONICALIZED>
1

> <PUBCHEM_CACTVS_COMPLEXITY>
654

> <PUBCHEM_CACTVS_HBOND_ACCEPTOR>
4

> <PUBCHEM_CACTVS_HBOND_DONOR>
1

> <PUBCHEM_CACTVS_ROTATABLE_BOND>
6

> <PUBCHEM_CACTVS_SUBSKEYS>
AAADcfB7MAAAEAAAAAAAAAAAAAAAAWAAAAA8YIAAAAAAAACx/AAAHgBACAABrizBngY/1vcMFgCgAzRnZACCiC0xMqQJ2CA8fLiMbuLG+ZuUcChuwBPI+jeQ0OMPoAAiEAAKAABAAEQgABQAAAAAAAAAAA==

> <PUBCHEM_IUPAC_OPENEYE_NAME>
4-[(6-bromo-2-methoxy-3-quinolyl)-imidazol-1-yl-methyl]-2,6-ditert-butyl-phenol

> <PUBCHEM_IUPAC_CAS_NAME>
4-[(6-bromo-2-methoxy-3-quinolinyl)-(1-imidazolyl)methyl]-2,6-ditert-butylphenol

> <PUBCHEM_IUPAC_NAME_MARKUP>
4-[(6-bromo-2-methoxyquinolin-3-yl)-imidazol-1-ylmethyl]-2,6-di<I>tert</I>-butylphenol

> <PUBCHEM_IUPAC_NAME>
4-[(6-bromo-2-methoxyquinolin-3-yl)-imidazol-1-ylmethyl]-2,6-ditert-butylphenol

> <PUBCHEM_IUPAC_SYSTEMATIC_NAME>
4-[(6-bromanyl-2-methoxy-quinolin-3-yl)-imidazol-1-yl-methyl]-2,6-ditert-butyl-phenol

> <PUBCHEM_IUPAC_TRADITIONAL_NAME>
4-[(6-bromo-2-methoxy-3-quinolyl)-imidazol-1-yl-methyl]-2,6-ditert-butyl-phenol

> <PUBCHEM_IUPAC_INCHI>
InChI=1S/C28H32BrN3O2/c1-27(2,3)21-14-18(15-22(25(21)33)28(4,5)6)24(32-11-10-30-16-32)20-13-17-12-19(29)8-9-23(17)31-26(20)34-7/h8-16,24,33H,1-7H3

> <PUBCHEM_IUPAC_INCHIKEY>
MXZOJCYUMGPERG-UHFFFAOYSA-N

> <PUBCHEM_XLOGP3_AA>
7.6

> <PUBCHEM_EXACT_MASS>
521.16779

> <PUBCHEM_MOLECULAR_FORMULA>
C28H32BrN3O2

> <PUBCHEM_MOLECULAR_WEIGHT>
522.5

> <PUBCHEM_OPENEYE_CAN_SMILES>
CC(C)(C)C1=CC(=CC(=C1O)C(C)(C)C)C(C2=C(N=C3C=CC(=CC3=C2)Br)OC)N4C=CN=C4

> <PUBCHEM_OPENEYE_ISO_SMILES>
CC(C)(C)C1=CC(=CC(=C1O)C(C)(C)C)C(C2=C(N=C3C=CC(=CC3=C2)Br)OC)N4C=CN=C4

> <PUBCHEM_CACTVS_TPSA>
60.2

> <PUBCHEM_MONOISOTOPIC_WEIGHT>
521.16779

> <PUBCHEM_TOTAL_CHARGE>
0

> <PUBCHEM_HEAVY_ATOM_COUNT>
34

> <PUBCHEM_ATOM_DEF_STEREO_COUNT>
0

> <PUBCHEM_ATOM_UDEF_STEREO_COUNT>
1

> <PUBCHEM_BOND_DEF_STEREO_COUNT>
0

> <PUBCHEM_BOND_UDEF_STEREO_COUNT>
0

> <PUBCHEM_ISOTOPIC_ATOM_COUNT>
0

> <PUBCHEM_COMPONENT_COUNT>
1

> <PUBCHEM_CACTVS_TAUTO_COUNT>
-1

> <PUBCHEM_COORDINATE_TYPE>
1
5
255

> <PUBCHEM_BONDANNOTATIONS>
10  12  8
10  15  8
13  11  3
11  14  8
11  15  8
22  23  8
22  24  8
23  27  8
25  29  8
27  28  8
27  30  8
28  31  8
30  32  8
31  33  8
32  33  8
4  25  8
4  26  8
5  24  8
5  28  8
6  26  8
6  29  8
9  12  8
9  14  8

$$$$
166177014
  -OEChem-08172310442D

 78 77  0     0  0  0  0  0  0999 V2000
   11.5263   -4.2631    0.0000 P   0  0  0  0  0  0  0  0  0  0  0  0
   10.6603   -4.7631    0.0000 O   0  0  0  0  0  0  0  0  0  0  0  0
   11.0263   -3.3971    0.0000 O   0  0  0  0  0  0  0  0  0  0  0  0
    8.9282   -4.7631    0.0000 O   0  0  0  0  0  0  0  0  0  0  0  0
   11.0263   -1.6651    0.0000 O   0  0  0  0  0  0  0  0  0  0  0  0
   12.0263   -5.1292    0.0000 O   0  0  0  0  0  0  0  0  0  0  0  0
    8.0622   -3.2631    0.0000 O   0  0  0  0  0  0  0  0  0  0  0  0
   12.5263   -0.7990    0.0000 O   0  0  0  0  0  0  0  0  0  0  0  0
   14.9904   -5.2631    0.0000 O   0  0  0  0  0  0  0  0  0  0  0  0
   16.7224   -4.2631    0.0000 O   0  0  0  0  0  0  0  0  0  0  0  0
   15.8564   -3.7631    0.0000 N   0  0  0  0  0  0  0  0  0  0  0  0
    4.5981   -4.2631    0.0000 C   0  0  0  0  0  0  0  0  0  0  0  0
   11.5263    2.6651    0.0000 C   0  0  0  0  0  0  0  0  0  0  0  0
    5.4641   -4.7631    0.0000 C   0  0  0  0  0  0  0  0  0  0  0  0
   11.0263    1.7990    0.0000 C   0  0  0  0  0  0  0  0  0  0  0  0
    3.7320   -4.7631    0.0000 C   0  0  0  0  0  0  0  0  0  0  0  0
   11.0263    3.5311    0.0000 C   0  0  0  0  0  0  0  0  0  0  0  0
    6.3301   -4.2631    0.0000 C   0  0  0  0  0  0  0  0  0  0  0  0
   11.5263    0.9330    0.0000 C   0  0  0  0  0  0  0  0  0  0  0  0
    2.8660   -4.2631    0.0000 C   0  0  0  0  0  0  0  0  0  0  0  0
   11.5263    4.3971    0.0000 C   0  0  0  0  0  0  0  0  0  0  0  0
    7.1962   -4.7631    0.0000 C   0  0  0  0  0  0  0  0  0  0  0  0
   11.0263    0.0670    0.0000 C   0  0  0  0  0  0  0  0  0  0  0  0
   12.3923   -3.7631    0.0000 C   0  0  0  0  0  0  0  0  0  0  0  0
   13.2583   -4.2631    0.0000 C   0  0  0  0  0  0  0  0  0  0  0  0
   14.1244   -3.7631    0.0000 C   0  0  0  0  0  0  0  0  0  0  0  0
    2.0000   -4.7631    0.0000 C   0  0  0  0  0  0  0  0  0  0  0  0
   11.0263    5.2631    0.0000 C   0  0  0  0  0  0  0  0  0  0  0  0
    8.0622   -4.2631    0.0000 C   0  0  0  0  0  0  0  0  0  0  0  0
   11.5263   -0.7990    0.0000 C   0  0  0  0  0  0  0  0  0  0  0  0
    9.7942   -4.2631    0.0000 C   0  0  0  0  0  0  0  0  0  0  0  0
   11.5263   -2.5311    0.0000 C   0  0  0  0  0  0  0  0  0  0  0  0
   14.9904   -4.2631    0.0000 C   0  0  0  0  0  0  0  0  0  0  0  0
   15.8564   -2.7631    0.0000 C   0  0  0  0  0  0  0  0  0  0  0  0
    4.9966   -3.7882    0.0000 H   0  0  0  0  0  0  0  0  0  0  0  0
    4.1996   -3.7882    0.0000 H   0  0  0  0  0  0  0  0  0  0  0  0
   12.0012    2.2665    0.0000 H   0  0  0  0  0  0  0  0  0  0  0  0
   12.0012    3.0636    0.0000 H   0  0  0  0  0  0  0  0  0  0  0  0
    5.0656   -5.2381    0.0000 H   0  0  0  0  0  0  0  0  0  0  0  0
    5.8626   -5.2381    0.0000 H   0  0  0  0  0  0  0  0  0  0  0  0
   10.5513    2.1976    0.0000 H   0  0  0  0  0  0  0  0  0  0  0  0
   10.5513    1.4005    0.0000 H   0  0  0  0  0  0  0  0  0  0  0  0
    3.3335   -5.2381    0.0000 H   0  0  0  0  0  0  0  0  0  0  0  0
    4.1306   -5.2381    0.0000 H   0  0  0  0  0  0  0  0  0  0  0  0
   10.5513    3.9296    0.0000 H   0  0  0  0  0  0  0  0  0  0  0  0
   10.5513    3.1326    0.0000 H   0  0  0  0  0  0  0  0  0  0  0  0
    6.7287   -3.7882    0.0000 H   0  0  0  0  0  0  0  0  0  0  0  0
    5.9316   -3.7882    0.0000 H   0  0  0  0  0  0  0  0  0  0  0  0
   12.0012    0.5345    0.0000 H   0  0  0  0  0  0  0  0  0  0  0  0
   12.0012    1.3315    0.0000 H   0  0  0  0  0  0  0  0  0  0  0  0
    3.2646   -3.7882    0.0000 H   0  0  0  0  0  0  0  0  0  0  0  0
    2.4675   -3.7882    0.0000 H   0  0  0  0  0  0  0  0  0  0  0  0
   12.0012    3.9986    0.0000 H   0  0  0  0  0  0  0  0  0  0  0  0
   12.0012    4.7956    0.0000 H   0  0  0  0  0  0  0  0  0  0  0  0
    6.7976   -5.2381    0.0000 H   0  0  0  0  0  0  0  0  0  0  0  0
    7.5947   -5.2381    0.0000 H   0  0  0  0  0  0  0  0  0  0  0  0
   10.5513    0.4655    0.0000 H   0  0  0  0  0  0  0  0  0  0  0  0
   10.5513   -0.3315    0.0000 H   0  0  0  0  0  0  0  0  0  0  0  0
   12.7908   -3.2882    0.0000 H   0  0  0  0  0  0  0  0  0  0  0  0
   11.9938   -3.2882    0.0000 H   0  0  0  0  0  0  0  0  0  0  0  0
   12.8598   -4.7381    0.0000 H   0  0  0  0  0  0  0  0  0  0  0  0
   13.6569   -4.7381    0.0000 H   0  0  0  0  0  0  0  0  0  0  0  0
   14.5229   -3.2882    0.0000 H   0  0  0  0  0  0  0  0  0  0  0  0
   13.7258   -3.2882    0.0000 H   0  0  0  0  0  0  0  0  0  0  0  0
    1.6900   -4.2262    0.0000 H   0  0  0  0  0  0  0  0  0  0  0  0
    1.4631   -5.0731    0.0000 H   0  0  0  0  0  0  0  0  0  0  0  0
    2.3100   -5.3001    0.0000 H   0  0  0  0  0  0  0  0  0  0  0  0
   11.5632    5.5731    0.0000 H   0  0  0  0  0  0  0  0  0  0  0  0
   10.7163    5.8001    0.0000 H   0  0  0  0  0  0  0  0  0  0  0  0
   10.4893    4.9531    0.0000 H   0  0  0  0  0  0  0  0  0  0  0  0
   10.1928   -3.7882    0.0000 H   0  0  0  0  0  0  0  0  0  0  0  0
    9.3957   -3.7882    0.0000 H   0  0  0  0  0  0  0  0  0  0  0  0
   12.0012   -2.9296    0.0000 H   0  0  0  0  0  0  0  0  0  0  0  0
   12.0012   -2.1326    0.0000 H   0  0  0  0  0  0  0  0  0  0  0  0
   16.4764   -2.7631    0.0000 H   0  0  0  0  0  0  0  0  0  0  0  0
   15.8564   -2.1431    0.0000 H   0  0  0  0  0  0  0  0  0  0  0  0
   15.2364   -2.7631    0.0000 H   0  0  0  0  0  0  0  0  0  0  0  0
   17.2594   -3.9531    0.0000 H   0  0  0  0  0  0  0  0  0  0  0  0
  1  2  1  0  0  0  0
  1  3  1  0  0  0  0
  1  6  2  0  0  0  0
  1 24  1  0  0  0  0
  2 31  1  0  0  0  0
  3 32  1  0  0  0  0
  4 29  1  0  0  0  0
  4 31  1  0  0  0  0
  5 30  1  0  0  0  0
  5 32  1  0  0  0  0
  7 29  2  0  0  0  0
  8 30  2  0  0  0  0
  9 33  2  0  0  0  0
 10 11  1  0  0  0  0
 10 78  1  0  0  0  0
 11 33  1  0  0  0  0
 11 34  1  0  0  0  0
 12 14  1  0  0  0  0
 12 16  1  0  0  0  0
 12 35  1  0  0  0  0
 12 36  1  0  0  0  0
 13 15  1  0  0  0  0
 13 17  1  0  0  0  0
 13 37  1  0  0  0  0
 13 38  1  0  0  0  0
 14 18  1  0  0  0  0
 14 39  1  0  0  0  0
 14 40  1  0  0  0  0
 15 19  1  0  0  0  0
 15 41  1  0  0  0  0
 15 42  1  0  0  0  0
 16 20  1  0  0  0  0
 16 43  1  0  0  0  0
 16 44  1  0  0  0  0
 17 21  1  0  0  0  0
 17 45  1  0  0  0  0
 17 46  1  0  0  0  0
 18 22  1  0  0  0  0
 18 47  1  0  0  0  0
 18 48  1  0  0  0  0
 19 23  1  0  0  0  0
 19 49  1  0  0  0  0
 19 50  1  0  0  0  0
 20 27  1  0  0  0  0
 20 51  1  0  0  0  0
 20 52  1  0  0  0  0
 21 28  1  0  0  0  0
 21 53  1  0  0  0  0
 21 54  1  0  0  0  0
 22 29  1  0  0  0  0
 22 55  1  0  0  0  0
 22 56  1  0  0  0  0
 23 30  1  0  0  0  0
 23 57  1  0  0  0  0
 23 58  1  0  0  0  0
 24 25  1  0  0  0  0
 24 59  1  0  0  0  0
 24 60  1  0  0  0  0
 25 26  1  0  0  0  0
 25 61  1  0  0  0  0
 25 62  1  0  0  0  0
 26 33  1  0  0  0  0
 26 63  1  0  0  0  0
 26 64  1  0  0  0  0
 27 65  1  0  0  0  0
 27 66  1  0  0  0  0
 27 67  1  0  0  0  0
 28 68  1  0  0  0  0
 28 69  1  0  0  0  0
 28 70  1  0  0  0  0
 31 71  1  0  0  0  0
 31 72  1  0  0  0  0
 32 73  1  0  0  0  0
 32 74  1  0  0  0  0
 34 75  1  0  0  0  0
 34 76  1  0  0  0  0
 34 77  1  0  0  0  0
M  END
> <PUBCHEM_COMPOUND_CID>
166177014

> <PUBCHEM_COMPOUND_CANONICALIZED>
1

> <PUBCHEM_CACTVS_COMPLEXITY>
579

> <PUBCHEM_CACTVS_HBOND_ACCEPTOR>
9

> <PUBCHEM_CACTVS_HBOND_DONOR>
1

> <PUBCHEM_CACTVS_ROTATABLE_BOND>
24

> <PUBCHEM_CACTVS_SUBSKEYS>
AAADcfB6PAIAAAAAAAAAAAAAAAAAAAAAAAAAAAAAAAAAAAAAAAAAHggECCAACACJgAcCCAIQBRAIQAGQGIAAAAAAAAAgAAEIAAAQABIAgAAEAAAEAgAEAAGIyKCAAAAAAAAAAAAAAAAAAAAAAAAAAAAAAA==

> <PUBCHEM_IUPAC_OPENEYE_NAME>
[[4-[hydroxy(methyl)amino]-4-oxo-butyl]-(octanoyloxymethoxy)phosphoryl]oxymethyl octanoate

> <PUBCHEM_IUPAC_CAS_NAME>
octanoic acid [[4-[hydroxy(methyl)amino]-4-oxobutyl]-(1-oxooctoxymethoxy)phosphoryl]oxymethyl ester

> <PUBCHEM_IUPAC_NAME_MARKUP>
[[4-[hydroxy(methyl)amino]-4-oxobutyl]-(octanoyloxymethoxy)phosphoryl]oxymethyl octanoate

> <PUBCHEM_IUPAC_NAME>
[[4-[hydroxy(methyl)amino]-4-oxobutyl]-(octanoyloxymethoxy)phosphoryl]oxymethyl octanoate

> <PUBCHEM_IUPAC_SYSTEMATIC_NAME>
[[4-[methyl(oxidanyl)amino]-4-oxidanylidene-butyl]-(octanoyloxymethoxy)phosphoryl]oxymethyl octanoate

> <PUBCHEM_IUPAC_TRADITIONAL_NAME>
caprylic acid [caprylyloxymethoxy-[4-[hydroxy(methyl)amino]-4-keto-butyl]phosphoryl]oxymethyl ester

> <PUBCHEM_IUPAC_INCHI>
InChI=1S/C23H44NO9P/c1-4-6-8-10-12-16-22(26)30-19-32-34(29,18-14-15-21(25)24(3)28)33-20-31-23(27)17-13-11-9-7-5-2/h28H,4-20H2,1-3H3

> <PUBCHEM_IUPAC_INCHIKEY>
JKGXSVCXJVTQCR-UHFFFAOYSA-N

> <PUBCHEM_XLOGP3_AA>
4.7

> <PUBCHEM_EXACT_MASS>
509.27536898

> <PUBCHEM_MOLECULAR_FORMULA>
C23H44NO9P

> <PUBCHEM_MOLECULAR_WEIGHT>
509.6

> <PUBCHEM_OPENEYE_CAN_SMILES>
CCCCCCCC(=O)OCOP(=O)(CCCC(=O)N(C)O)OCOC(=O)CCCCCCC

> <PUBCHEM_OPENEYE_ISO_SMILES>
CCCCCCCC(=O)OCOP(=O)(CCCC(=O)N(C)O)OCOC(=O)CCCCCCC

> <PUBCHEM_CACTVS_TPSA>
129

> <PUBCHEM_MONOISOTOPIC_WEIGHT>
509.27536898

> <PUBCHEM_TOTAL_CHARGE>
0

> <PUBCHEM_HEAVY_ATOM_COUNT>
34

> <PUBCHEM_ATOM_DEF_STEREO_COUNT>
0

> <PUBCHEM_ATOM_UDEF_STEREO_COUNT>
0

> <PUBCHEM_BOND_DEF_STEREO_COUNT>
0

> <PUBCHEM_BOND_UDEF_STEREO_COUNT>
0

> <PUBCHEM_ISOTOPIC_ATOM_COUNT>
0

> <PUBCHEM_COMPONENT_COUNT>
1

> <PUBCHEM_CACTVS_TAUTO_COUNT>
-1

> <PUBCHEM_COORDINATE_TYPE>
1
5
255

$$$$
5403295
  -OEChem-08172310442D

 35 37  0     0  0  0  0  0  0999 V2000
    8.4124   -2.7257    0.0000 O   0  0  0  0  0  0  0  0  0  0  0  0
    3.2733    0.3621    0.0000 O   0  0  0  0  0  0  0  0  0  0  0  0
    6.6804   -2.7257    0.0000 O   0  0  0  0  0  0  0  0  0  0  0  0
    2.0000    2.0176    0.0000 O   0  5  0  0  0  0  0  0  0  0  0  0
    3.4013    3.0357    0.0000 O   0  0  0  0  0  0  0  0  0  0  0  0
    5.8144   -1.2257    0.0000 N   0  0  0  0  0  0  0  0  0  0  0  0
    4.9483   -1.7257    0.0000 N   0  0  0  0  0  0  0  0  0  0  0  0
    2.9945    2.1222    0.0000 N   0  3  0  0  0  0  0  0  0  0  0  0
    9.2785   -1.2257    0.0000 C   0  0  0  0  0  0  0  0  0  0  0  0
    9.2785   -0.2257    0.0000 C   0  0  0  0  0  0  0  0  0  0  0  0
    8.4124   -1.7257    0.0000 C   0  0  0  0  0  0  0  0  0  0  0  0
    7.5464   -1.2257    0.0000 C   0  0  0  0  0  0  0  0  0  0  0  0
    8.4124    0.2743    0.0000 C   0  0  0  0  0  0  0  0  0  0  0  0
    7.5464   -0.2257    0.0000 C   0  0  0  0  0  0  0  0  0  0  0  0
   10.1724   -1.7604    0.0000 C   0  0  0  0  0  0  0  0  0  0  0  0
   10.1724    0.3090    0.0000 C   0  0  0  0  0  0  0  0  0  0  0  0
   11.0785   -1.2465    0.0000 C   0  0  0  0  0  0  0  0  0  0  0  0
   11.0785   -0.2049    0.0000 C   0  0  0  0  0  0  0  0  0  0  0  0
    6.6804   -1.7257    0.0000 C   0  0  0  0  0  0  0  0  0  0  0  0
    4.0823   -0.2257    0.0000 C   0  0  0  0  0  0  0  0  0  0  0  0
    4.8913    0.3621    0.0000 C   0  0  0  0  0  0  0  0  0  0  0  0
    3.5823    1.3131    0.0000 C   0  0  0  0  0  0  0  0  0  0  0  0
    4.5823    1.3131    0.0000 C   0  0  0  0  0  0  0  0  0  0  0  0
    4.0823   -1.2257    0.0000 C   0  0  0  0  0  0  0  0  0  0  0  0
    8.4124    0.8943    0.0000 H   0  0  0  0  0  0  0  0  0  0  0  0
    7.0095    0.0843    0.0000 H   0  0  0  0  0  0  0  0  0  0  0  0
   10.1652   -2.3803    0.0000 H   0  0  0  0  0  0  0  0  0  0  0  0
   10.1652    0.9289    0.0000 H   0  0  0  0  0  0  0  0  0  0  0  0
   11.6142   -1.5586    0.0000 H   0  0  0  0  0  0  0  0  0  0  0  0
   11.6142    0.1072    0.0000 H   0  0  0  0  0  0  0  0  0  0  0  0
    5.8144   -0.6057    0.0000 H   0  0  0  0  0  0  0  0  0  0  0  0
    8.9494   -3.0357    0.0000 H   0  0  0  0  0  0  0  0  0  0  0  0
    5.4810    0.1705    0.0000 H   0  0  0  0  0  0  0  0  0  0  0  0
    4.9467    1.8147    0.0000 H   0  0  0  0  0  0  0  0  0  0  0  0
    3.5454   -1.5357    0.0000 H   0  0  0  0  0  0  0  0  0  0  0  0
  1 11  1  0  0  0  0
  1 32  1  0  0  0  0
  2 20  1  0  0  0  0
  2 22  1  0  0  0  0
  3 19  2  0  0  0  0
  4  8  1  0  0  0  0
  5  8  2  0  0  0  0
  6  7  1  0  0  0  0
  6 19  1  0  0  0  0
  6 31  1  0  0  0  0
  7 24  2  0  0  0  0
  8 22  1  0  0  0  0
  9 10  1  0  0  0  0
  9 11  1  0  0  0  0
  9 15  2  0  0  0  0
 10 13  1  0  0  0  0
 10 16  2  0  0  0  0
 11 12  2  0  0  0  0
 12 14  1  0  0  0  0
 12 19  1  0  0  0  0
 13 14  2  0  0  0  0
 13 25  1  0  0  0  0
 14 26  1  0  0  0  0
 15 17  1  0  0  0  0
 15 27  1  0  0  0  0
 16 18  1  0  0  0  0
 16 28  1  0  0  0  0
 17 18  2  0  0  0  0
 17 29  1  0  0  0  0
 18 30  1  0  0  0  0
 20 21  2  0  0  0  0
 20 24  1  0  0  0  0
 21 23  1  0  0  0  0
 21 33  1  0  0  0  0
 22 23  2  0  0  0  0
 23 34  1  0  0  0  0
 24 35  1  0  0  0  0
M  CHG  2   4  -1   8   1
M  END
> <PUBCHEM_COMPOUND_CID>
5403295

> <PUBCHEM_COMPOUND_CANONICALIZED>
1

> <PUBCHEM_CACTVS_COMPLEXITY>
506

> <PUBCHEM_CACTVS_HBOND_ACCEPTOR>
6

> <PUBCHEM_CACTVS_HBOND_DONOR>
2

> <PUBCHEM_CACTVS_ROTATABLE_BOND>
3

> <PUBCHEM_CACTVS_SUBSKEYS>
AAADccB7OAAAAAAAAAAAAAAAAAAAASAAAAAwYAAAAAAAAADB1AAAHgAcCAAADATBmAQwhsByRkCpArFzUwSSCAAsIgA6iAEmbNoMJraGtZuKeWDm6BEI+Ye8yPCOwAADAAAYAACAAAYAADAAAAAAAAAAAA==

> <PUBCHEM_IUPAC_OPENEYE_NAME>
1-hydroxy-N-[(Z)-(5-nitro-2-furyl)methyleneamino]naphthalene-2-carboxamide

> <PUBCHEM_IUPAC_CAS_NAME>
1-hydroxy-N-[(Z)-(5-nitro-2-furanyl)methylideneamino]-2-naphthalenecarboxamide

> <PUBCHEM_IUPAC_NAME_MARKUP>
1-hydroxy-<I>N</I>-[(<I>Z</I>)-(5-nitrofuran-2-yl)methylideneamino]naphthalene-2-carboxamide

> <PUBCHEM_IUPAC_NAME>
1-hydroxy-N-[(Z)-(5-nitrofuran-2-yl)methylideneamino]naphthalene-2-carboxamide

> <PUBCHEM_IUPAC_SYSTEMATIC_NAME>
N-[(Z)-(5-nitrofuran-2-yl)methylideneamino]-1-oxidanyl-naphthalene-2-carboxamide

> <PUBCHEM_IUPAC_TRADITIONAL_NAME>
1-hydroxy-N-[(Z)-(5-nitro-2-furyl)methyleneamino]-2-naphthamide

> <PUBCHEM_IUPAC_INCHI>
InChI=1S/C16H11N3O5/c20-15-12-4-2-1-3-10(12)5-7-13(15)16(21)18-17-9-11-6-8-14(24-11)19(22)23/h1-9,20H,(H,18,21)/b17-9-

> <PUBCHEM_IUPAC_INCHIKEY>
WIYZCUJTNSCFQR-MFOYZWKCSA-N

> <PUBCHEM_XLOGP3_AA>
3.8

> <PUBCHEM_EXACT_MASS>
325.06987046

> <PUBCHEM_MOLECULAR_FORMULA>
C16H11N3O5

> <PUBCHEM_MOLECULAR_WEIGHT>
325.27

> <PUBCHEM_OPENEYE_CAN_SMILES>
C1=CC=C2C(=C1)C=CC(=C2O)C(=O)NN=CC3=CC=C(O3)[N+](=O)[O-]

> <PUBCHEM_OPENEYE_ISO_SMILES>
C1=CC=C2C(=C1)C=CC(=C2O)C(=O)N/N=C\C3=CC=C(O3)[N+](=O)[O-]

> <PUBCHEM_CACTVS_TPSA>
121

> <PUBCHEM_MONOISOTOPIC_WEIGHT>
325.06987046

> <PUBCHEM_TOTAL_CHARGE>
0

> <PUBCHEM_HEAVY_ATOM_COUNT>
24

> <PUBCHEM_ATOM_DEF_STEREO_COUNT>
0

> <PUBCHEM_ATOM_UDEF_STEREO_COUNT>
0

> <PUBCHEM_BOND_DEF_STEREO_COUNT>
1

> <PUBCHEM_BOND_UDEF_STEREO_COUNT>
0

> <PUBCHEM_ISOTOPIC_ATOM_COUNT>
0

> <PUBCHEM_COMPONENT_COUNT>
1

> <PUBCHEM_CACTVS_TAUTO_COUNT>
-1

> <PUBCHEM_COORDINATE_TYPE>
1
5
255

> <PUBCHEM_BONDANNOTATIONS>
10  13  8
10  16  8
11  12  8
12  14  8
13  14  8
15  17  8
16  18  8
17  18  8
2  20  8
2  22  8
20  21  8
21  23  8
22  23  8
9  10  8
9  11  8
9  15  8

$$$$
