44226912
  -OEChem-08182309503D

 52 56  0     0  0  0  0  0  0999 V2000
    0.6666    0.6671   -0.1398 O   0  0  0  0  0  0  0  0  0  0  0  0
    5.4457    0.9493   -0.3472 N   0  0  0  0  0  0  0  0  0  0  0  0
    0.7964   -2.1921   -0.0694 N   0  0  0  0  0  0  0  0  0  0  0  0
   -4.0934    0.3211    0.0700 N   0  0  0  0  0  0  0  0  0  0  0  0
   -3.9595    4.5158   -0.0454 N   0  0  0  0  0  0  0  0  0  0  0  0
    4.2735    0.1683   -0.2773 C   0  0  0  0  0  0  0  0  0  0  0  0
   -0.3535   -1.5910   -0.0373 C   0  0  0  0  0  0  0  0  0  0  0  0
   -1.6046   -2.3833    0.0358 C   0  0  0  0  0  0  0  0  0  0  0  0
    1.8695    0.0063   -0.1725 C   0  0  0  0  0  0  0  0  0  0  0  0
   -0.4819   -0.1083   -0.0711 C   0  0  0  0  0  0  0  0  0  0  0  0
    1.9448   -1.3894   -0.1387 C   0  0  0  0  0  0  0  0  0  0  0  0
   -2.8509   -1.7499    0.0719 C   0  0  0  0  0  0  0  0  0  0  0  0
    3.0250    0.7861   -0.2415 C   0  0  0  0  0  0  0  0  0  0  0  0
    6.7487    0.3157   -0.3851 C   0  0  0  0  0  0  0  0  0  0  0  0
    5.3624    2.3958   -0.3900 C   0  0  0  0  0  0  0  0  0  0  0  0
   -2.9442   -0.2758    0.0371 C   0  0  0  0  0  0  0  0  0  0  0  0
    4.3631   -1.2225   -0.2441 C   0  0  0  0  0  0  0  0  0  0  0  0
   -1.6773    0.4854   -0.0364 C   0  0  0  0  0  0  0  0  0  0  0  0
    3.2038   -1.9977   -0.1751 C   0  0  0  0  0  0  0  0  0  0  0  0
   -1.5379   -3.7839    0.0687 C   0  0  0  0  0  0  0  0  0  0  0  0
   -4.0217   -2.5186    0.1410 C   0  0  0  0  0  0  0  0  0  0  0  0
    7.1790   -0.0776    1.0149 C   0  0  0  0  0  0  0  0  0  0  0  0
    5.3649    2.9608    1.0174 C   0  0  0  0  0  0  0  0  0  0  0  0
   -2.7067   -4.5425    0.1370 C   0  0  0  0  0  0  0  0  0  0  0  0
   -3.9464   -3.9110    0.1732 C   0  0  0  0  0  0  0  0  0  0  0  0
   -4.0485    1.7231    0.0313 C   0  0  0  0  0  0  0  0  0  0  0  0
   -4.0770    2.3892   -1.1889 C   0  0  0  0  0  0  0  0  0  0  0  0
   -3.9756    2.4518    1.2132 C   0  0  0  0  0  0  0  0  0  0  0  0
   -4.0307    3.7739   -1.1733 C   0  0  0  0  0  0  0  0  0  0  0  0
   -3.9336    3.8338    1.1214 C   0  0  0  0  0  0  0  0  0  0  0  0
    2.8892    1.8618   -0.2446 H   0  0  0  0  0  0  0  0  0  0  0  0
    6.7832   -0.5340   -1.0761 H   0  0  0  0  0  0  0  0  0  0  0  0
    7.4971    1.0143   -0.7808 H   0  0  0  0  0  0  0  0  0  0  0  0
    6.2406    2.7996   -0.9110 H   0  0  0  0  0  0  0  0  0  0  0  0
    4.5215    2.7715   -0.9816 H   0  0  0  0  0  0  0  0  0  0  0  0
    5.3014   -1.7654   -0.2701 H   0  0  0  0  0  0  0  0  0  0  0  0
   -1.6686    1.5682   -0.0654 H   0  0  0  0  0  0  0  0  0  0  0  0
    3.2885   -3.0816   -0.1500 H   0  0  0  0  0  0  0  0  0  0  0  0
   -0.5864   -4.3084    0.0420 H   0  0  0  0  0  0  0  0  0  0  0  0
   -5.0042   -2.0552    0.1704 H   0  0  0  0  0  0  0  0  0  0  0  0
    6.4651   -0.7393    1.5133 H   0  0  0  0  0  0  0  0  0  0  0  0
    7.3151    0.7979    1.6555 H   0  0  0  0  0  0  0  0  0  0  0  0
    8.1408   -0.5998    0.9731 H   0  0  0  0  0  0  0  0  0  0  0  0
    4.5601    2.5432    1.6303 H   0  0  0  0  0  0  0  0  0  0  0  0
    5.2311    4.0471    0.9826 H   0  0  0  0  0  0  0  0  0  0  0  0
    6.3122    2.7682    1.5281 H   0  0  0  0  0  0  0  0  0  0  0  0
   -2.6487   -5.6269    0.1621 H   0  0  0  0  0  0  0  0  0  0  0  0
   -4.8559   -4.5024    0.2265 H   0  0  0  0  0  0  0  0  0  0  0  0
   -4.1347    1.8501   -2.1285 H   0  0  0  0  0  0  0  0  0  0  0  0
   -3.9527    1.9627    2.1812 H   0  0  0  0  0  0  0  0  0  0  0  0
   -4.0504    4.3407   -2.0983 H   0  0  0  0  0  0  0  0  0  0  0  0
   -3.8765    4.4480    2.0140 H   0  0  0  0  0  0  0  0  0  0  0  0
  1  9  1  0  0  0  0
  1 10  1  0  0  0  0
  2  6  1  0  0  0  0
  2 14  1  0  0  0  0
  2 15  1  0  0  0  0
  3  7  2  0  0  0  0
  3 11  1  0  0  0  0
  4 16  2  0  0  0  0
  4 26  1  0  0  0  0
  5 29  2  0  0  0  0
  5 30  1  0  0  0  0
  6 13  2  0  0  0  0
  6 17  1  0  0  0  0
  7  8  1  0  0  0  0
  7 10  1  0  0  0  0
  8 12  1  0  0  0  0
  8 20  2  0  0  0  0
  9 11  2  0  0  0  0
  9 13  1  0  0  0  0
 10 18  2  0  0  0  0
 11 19  1  0  0  0  0
 12 16  1  0  0  0  0
 12 21  2  0  0  0  0
 13 31  1  0  0  0  0
 14 22  1  0  0  0  0
 14 32  1  0  0  0  0
 14 33  1  0  0  0  0
 15 23  1  0  0  0  0
 15 34  1  0  0  0  0
 15 35  1  0  0  0  0
 16 18  1  0  0  0  0
 17 19  2  0  0  0  0
 17 36  1  0  0  0  0
 18 37  1  0  0  0  0
 19 38  1  0  0  0  0
 20 24  1  0  0  0  0
 20 39  1  0  0  0  0
 21 25  1  0  0  0  0
 21 40  1  0  0  0  0
 22 41  1  0  0  0  0
 22 42  1  0  0  0  0
 22 43  1  0  0  0  0
 23 44  1  0  0  0  0
 23 45  1  0  0  0  0
 23 46  1  0  0  0  0
 24 25  2  0  0  0  0
 24 47  1  0  0  0  0
 25 48  1  0  0  0  0
 26 27  2  0  0  0  0
 26 28  1  0  0  0  0
 27 29  1  0  0  0  0
 27 49  1  0  0  0  0
 28 30  2  0  0  0  0
 28 50  1  0  0  0  0
 29 51  1  0  0  0  0
 30 52  1  0  0  0  0
M  END
> <PUBCHEM_COMPOUND_CID>
44226912

> <PUBCHEM_CONFORMER_RMSD>
0.8

> <PUBCHEM_CONFORMER_DIVERSEORDER>
2
1

> <PUBCHEM_MMFF94_PARTIAL_CHARGES>
40
1 -0.16
10 0.09
11 0.18
12 0.09
13 -0.15
14 0.37
15 0.37
16 0.35
17 -0.15
18 -0.14
19 -0.15
2 -0.84
20 -0.15
21 -0.15
24 -0.15
25 -0.15
26 0.18
27 -0.15
28 -0.15
29 0.16
3 -0.63
30 0.16
31 0.15
36 0.15
37 0.15
38 0.15
39 0.15
4 -0.63
40 0.15
47 0.15
48 0.15
49 0.15
5 -0.62
50 0.15
51 0.15
52 0.15
6 0.1
7 0.35
8 0.09
9 0.08

> <PUBCHEM_EFFECTIVE_ROTOR_COUNT>
4

> <PUBCHEM_PHARMACOPHORE_FEATURES>
10
1 1 acceptor
1 2 cation
1 3 acceptor
1 4 acceptor
1 5 acceptor
6 1 3 7 9 10 11 rings
6 5 26 27 28 29 30 rings
6 6 9 11 13 17 19 rings
6 7 8 10 12 16 18 rings
6 8 12 20 21 24 25 rings

> <PUBCHEM_HEAVY_ATOM_COUNT>
30

> <PUBCHEM_ATOM_DEF_STEREO_COUNT>
0

> <PUBCHEM_ATOM_UDEF_STEREO_COUNT>
0

> <PUBCHEM_BOND_DEF_STEREO_COUNT>
0

> <PUBCHEM_BOND_UDEF_STEREO_COUNT>
0

> <PUBCHEM_ISOTOPIC_ATOM_COUNT>
0

> <PUBCHEM_COMPONENT_COUNT>
1

> <PUBCHEM_CACTVS_TAUTO_COUNT>
1

> <PUBCHEM_CONFORMER_ID>
02A2D96000000002

> <PUBCHEM_MMFF94_ENERGY>
110.1947

> <PUBCHEM_FEATURE_SELFOVERLAP>
50.839

> <PUBCHEM_SHAPE_FINGERPRINT>
10050765 1 18410576172050181190
100830 39 18410292545041231824
10319926 262 18340755032097122962
10411042 1 17977949308913396083
10675989 125 17619068326595691721
10937287 8 18266177219652782671
1100329 8 17977102353809820003
11059845 2 18121187958545437624
11135609 187 18192423071058808317
11135609 201 18128822945909420545
12107183 9 18118111486346444170
12422481 6 17458345187423682068
12788726 201 18262230148866219739
12925494 130 18413666915777458088
138480 1 16680630660222387535
14415360 78 18265038151393120205
14508225 48 18053092115593764391
14713325 29 18410579521923783347
14790565 3 18122629353511844717
15021287 119 17095246912810457732
15131766 46 15070909777875139927
15320467 1 18410857616461357036
15326921 28 18192135006637018464
15419008 42 18059020463157678310
15439362 3 17980482260894754271
15463212 79 18260264131917768483
16087824 20 18410293645550216599
16992779 147 17334515804381614953
17844677 252 18338805636371933020
19246450 95 17394700927691136736
20691028 202 18270967817290427921
21033648 29 18339355245783062561
21033650 10 18117305686019969982
21236236 1 18411419556848855494
21315763 129 18339080505783823036
21716022 299 15327550296266490295
21796203 349 17179720415456571931
23559900 14 18051685843909780667
23929065 36 18269254919701707202
24893989 43 11393200432660184625
249057 25 17822573923656854972
25019877 29 18272942600977857903
255183 313 18269860699986869851
27425 322 18056481643511703517
283562 15 18409165524612531979
3418910 222 17827368992313087708
350125 39 18339647861909687299
376196 1 18269554944631937751
4144715 1 18409737266221460082
5104073 3 18334574646845705330
5283173 99 18412263956552242928
550186 7 18271817855636301079
550186 72 18194965377199836165
6523845 18 17692854456402525109
6673363 416 17760947521071047228
6677587 24 15945355512363620719
6700243 42 17695950899699299198
7808743 9 18410011009597239265
9981440 41 18264493876104253129

> <PUBCHEM_SHAPE_MULTIPOLES>
591.59
14.9
5.98
0.89
24.91
0.6
0.06
9.09
1.15
-11.04
0.39
-0.21
0.7
0.62

> <PUBCHEM_SHAPE_SELFOVERLAP>
1316.968

> <PUBCHEM_SHAPE_VOLUME>
310.1

> <PUBCHEM_COORDINATE_TYPE>
2
5
10

$$$$
1285085
  -OEChem-08182309503D

 40 43  0     0  0  0  0  0  0999 V2000
    4.2467   -0.2652   -2.1840 Cl  0  0  0  0  0  0  0  0  0  0  0  0
    1.6160   -2.3326    0.2332 O   0  0  0  0  0  0  0  0  0  0  0  0
   -1.4190   -1.6810   -1.0924 N   0  0  0  0  0  0  0  0  0  0  0  0
   -0.3888    0.2901   -0.3245 N   0  0  0  0  0  0  0  0  0  0  0  0
   -1.7125    2.1358    0.4805 N   0  0  0  0  0  0  0  0  0  0  0  0
    0.6304    2.2550    0.4424 N   0  0  0  0  0  0  0  0  0  0  0  0
   -2.8013    0.1445   -0.2942 C   0  0  0  0  0  0  0  0  0  0  0  0
   -1.5364   -0.3754   -0.5542 C   0  0  0  0  0  0  0  0  0  0  0  0
   -2.8393    1.4432    0.2389 C   0  0  0  0  0  0  0  0  0  0  0  0
   -0.1591   -2.2826   -1.3856 C   0  0  0  0  0  0  0  0  0  0  0  0
   -0.5486    1.5218    0.1856 C   0  0  0  0  0  0  0  0  0  0  0  0
   -3.9859   -0.5703   -0.5428 C   0  0  0  0  0  0  0  0  0  0  0  0
    0.4287   -2.8523   -0.1306 C   0  0  0  0  0  0  0  0  0  0  0  0
   -4.0875    1.9973    0.5121 C   0  0  0  0  0  0  0  0  0  0  0  0
   -5.2196    0.0077   -0.2604 C   0  0  0  0  0  0  0  0  0  0  0  0
   -5.2701    1.2929    0.2676 C   0  0  0  0  0  0  0  0  0  0  0  0
    1.9946    1.9562    0.2684 C   0  0  0  0  0  0  0  0  0  0  0  0
   -0.0066   -3.8068    0.7282 C   0  0  0  0  0  0  0  0  0  0  0  0
    2.3988    1.0934   -0.7525 C   0  0  0  0  0  0  0  0  0  0  0  0
    2.9487    2.5213    1.1172 C   0  0  0  0  0  0  0  0  0  0  0  0
    0.9960   -3.8973    1.7230 C   0  0  0  0  0  0  0  0  0  0  0  0
    1.9612   -2.9805    1.3769 C   0  0  0  0  0  0  0  0  0  0  0  0
    3.7510    0.7970   -0.9239 C   0  0  0  0  0  0  0  0  0  0  0  0
    4.3008    2.2250    0.9458 C   0  0  0  0  0  0  0  0  0  0  0  0
    4.7020    1.3630   -0.0747 C   0  0  0  0  0  0  0  0  0  0  0  0
    0.5295   -1.5851   -1.8762 H   0  0  0  0  0  0  0  0  0  0  0  0
   -0.3149   -3.1051   -2.0937 H   0  0  0  0  0  0  0  0  0  0  0  0
   -2.1765   -2.3245   -0.8943 H   0  0  0  0  0  0  0  0  0  0  0  0
   -3.9941   -1.5699   -0.9654 H   0  0  0  0  0  0  0  0  0  0  0  0
   -4.1545    3.0018    0.9256 H   0  0  0  0  0  0  0  0  0  0  0  0
    0.4495    3.1158    0.9500 H   0  0  0  0  0  0  0  0  0  0  0  0
   -6.1372   -0.5396   -0.4535 H   0  0  0  0  0  0  0  0  0  0  0  0
   -6.2291    1.7519    0.4903 H   0  0  0  0  0  0  0  0  0  0  0  0
   -0.9231   -4.3754    0.6648 H   0  0  0  0  0  0  0  0  0  0  0  0
    1.6874    0.6749   -1.4574 H   0  0  0  0  0  0  0  0  0  0  0  0
    2.6495    3.1938    1.9173 H   0  0  0  0  0  0  0  0  0  0  0  0
    1.0130   -4.5490    2.5846 H   0  0  0  0  0  0  0  0  0  0  0  0
    2.9025   -2.6833    1.8158 H   0  0  0  0  0  0  0  0  0  0  0  0
    5.0413    2.6652    1.6072 H   0  0  0  0  0  0  0  0  0  0  0  0
    5.7591    1.1412   -0.1964 H   0  0  0  0  0  0  0  0  0  0  0  0
  1 23  1  0  0  0  0
  2 13  1  0  0  0  0
  2 22  1  0  0  0  0
  3  8  1  0  0  0  0
  3 10  1  0  0  0  0
  3 28  1  0  0  0  0
  4  8  2  0  0  0  0
  4 11  1  0  0  0  0
  5  9  1  0  0  0  0
  5 11  2  0  0  0  0
  6 11  1  0  0  0  0
  6 17  1  0  0  0  0
  6 31  1  0  0  0  0
  7  8  1  0  0  0  0
  7  9  1  0  0  0  0
  7 12  2  0  0  0  0
  9 14  2  0  0  0  0
 10 13  1  0  0  0  0
 10 26  1  0  0  0  0
 10 27  1  0  0  0  0
 12 15  1  0  0  0  0
 12 29  1  0  0  0  0
 13 18  2  0  0  0  0
 14 16  1  0  0  0  0
 14 30  1  0  0  0  0
 15 16  2  0  0  0  0
 15 32  1  0  0  0  0
 16 33  1  0  0  0  0
 17 19  2  0  0  0  0
 17 20  1  0  0  0  0
 18 21  1  0  0  0  0
 18 34  1  0  0  0  0
 19 23  1  0  0  0  0
 19 35  1  0  0  0  0
 20 24  2  0  0  0  0
 20 36  1  0  0  0  0
 21 22  2  0  0  0  0
 21 37  1  0  0  0  0
 22 38  1  0  0  0  0
 23 25  2  0  0  0  0
 24 25  1  0  0  0  0
 24 39  1  0  0  0  0
 25 40  1  0  0  0  0
M  END
> <PUBCHEM_COMPOUND_CID>
1285085

> <PUBCHEM_CONFORMER_RMSD>
0.8

> <PUBCHEM_CONFORMER_DIVERSEORDER>
1
30
148
114
86
112
90
96
120
97
73
81
100
48
54
63
28
75
56
121
25
57
101
41
49
16
94
52
38
39
64
123
98
104
6
145
135
42
43
60
61
74
67
13
119
125
85
34
59
117
95
62
20
109
127
124
110
126
3
137
76
12
142
83
70
102
23
69
80
45
129
15
115
71
44
106
77
144
58
4
139
37
35
66
7
118
130
29
143
84
51
8
132
55
134
65
82
31
122
27
133
68
47
146
26
78
18
50
116
136
131
24
113
53
87
91
40
11
128
2
103
21
89
93
32
36
46
88
22
111
138
92
9
79
140
19
108
105
147
5
72
17
107
14
10
141
99
33

> <PUBCHEM_MMFF94_PARTIAL_CHARGES>
37
1 -0.18
10 0.55
11 0.72
12 -0.15
13 -0.04
14 -0.15
15 -0.15
16 -0.15
17 0.1
18 -0.15
19 -0.15
2 -0.28
20 -0.15
21 -0.15
22 -0.01
23 0.18
24 -0.15
25 -0.15
28 0.4
29 0.15
3 -0.87
30 0.15
31 0.4
32 0.15
33 0.15
34 0.15
35 0.15
36 0.15
37 0.15
38 0.15
39 0.15
4 -0.62
40 0.15
5 -0.62
6 -0.6
8 0.41
9 0.31

> <PUBCHEM_EFFECTIVE_ROTOR_COUNT>
5

> <PUBCHEM_PHARMACOPHORE_FEATURES>
8
1 2 acceptor
1 3 donor
1 6 donor
4 4 5 6 11 cation
5 2 13 18 21 22 rings
6 17 19 20 23 24 25 rings
6 4 5 7 8 9 11 rings
6 7 9 12 14 15 16 rings

> <PUBCHEM_HEAVY_ATOM_COUNT>
25

> <PUBCHEM_ATOM_DEF_STEREO_COUNT>
0

> <PUBCHEM_ATOM_UDEF_STEREO_COUNT>
0

> <PUBCHEM_BOND_DEF_STEREO_COUNT>
0

> <PUBCHEM_BOND_UDEF_STEREO_COUNT>
0

> <PUBCHEM_ISOTOPIC_ATOM_COUNT>
0

> <PUBCHEM_COMPONENT_COUNT>
1

> <PUBCHEM_CACTVS_TAUTO_COUNT>
6

> <PUBCHEM_CONFORMER_ID>
00139BDD00000001

> <PUBCHEM_MMFF94_ENERGY>
79.3754

> <PUBCHEM_FEATURE_SELFOVERLAP>
40.629

> <PUBCHEM_SHAPE_FINGERPRINT>
10190108 129 18190193467509410891
10305334 12 17049863577761733672
107951 10 18336836402135113030
108634 29 18196377150562079438
1100329 8 18337384955485180762
12592029 89 18409450280294825969
12644460 14 18267596714902384177
12788726 201 17468486262049123326
13135754 10 17316213715475903442
13140716 1 18409442579186660818
138480 1 17978223864106338794
146900 427 18342187622469699387
14790565 3 18338519741426319881
14866123 147 18194113251414539074
14931854 50 18268167370159030022
14955137 171 18124030122957782114
15475509 35 17462599142646080969
15927050 60 18339920514734025727
19591789 44 18411981381515115669
20197701 30 18341891930787475661
20465049 17 18340502079412720566
20567600 347 18333733519870071146
20642791 13 17767110274220340396
20832881 197 18129676196722726788
21421861 104 18050863121470695985
21796203 349 17473016928782323635
22393880 68 18342741767418813285
22956985 138 17896874357321329515
23366157 5 18116720612505156245
23558518 356 17907569586213137708
23559900 14 17977937995847556707
25147074 1 18130216053254266733
3298306 158 18409164402865886237
3380486 77 16894766523593221009
43471831 8 18409725158249300913
57091435 65 18265886978347192842
59755656 215 18408039603161975941
6004065 56 16110058457762531894
6138700 20 18270127807854720566
81228 2 17835233828475625444
9709674 26 17986113139625243940

> <PUBCHEM_SHAPE_MULTIPOLES>
490.56
9.41
4.58
1.39
4.48
5.01
-0.24
-7.2
-1.12
-2.38
2.39
-1.45
0.76
-0.38

> <PUBCHEM_SHAPE_SELFOVERLAP>
1077.753

> <PUBCHEM_SHAPE_VOLUME>
264.8

> <PUBCHEM_COORDINATE_TYPE>
2
5
10

$$$$
265893
  -OEChem-08182309503D

 29 31  0     0  0  0  0  0  0999 V2000
    0.1753   -2.2776    0.0028 O   0  0  0  0  0  0  0  0  0  0  0  0
    0.7666    2.4737   -0.0051 O   0  0  0  0  0  0  0  0  0  0  0  0
   -1.8555    2.8099    0.0037 O   0  0  0  0  0  0  0  0  0  0  0  0
   -1.7157   -0.7922   -0.0001 C   0  0  0  0  0  0  0  0  0  0  0  0
    0.6036    0.0896   -0.0004 C   0  0  0  0  0  0  0  0  0  0  0  0
   -2.2953    0.4835    0.0004 C   0  0  0  0  0  0  0  0  0  0  0  0
   -0.2463   -0.9588    0.0005 C   0  0  0  0  0  0  0  0  0  0  0  0
    2.0659   -0.0876   -0.0002 C   0  0  0  0  0  0  0  0  0  0  0  0
    0.0608    1.4746   -0.0011 C   0  0  0  0  0  0  0  0  0  0  0  0
   -1.4249    1.6673    0.0012 C   0  0  0  0  0  0  0  0  0  0  0  0
   -2.5800   -1.9009   -0.0009 C   0  0  0  0  0  0  0  0  0  0  0  0
   -3.6853    0.6559    0.0001 C   0  0  0  0  0  0  0  0  0  0  0  0
   -3.9682   -1.7350   -0.0011 C   0  0  0  0  0  0  0  0  0  0  0  0
    2.7546   -0.1723   -1.2080 C   0  0  0  0  0  0  0  0  0  0  0  0
    2.7543   -0.1704    1.2079 C   0  0  0  0  0  0  0  0  0  0  0  0
   -4.5199   -0.4579   -0.0007 C   0  0  0  0  0  0  0  0  0  0  0  0
    4.1394   -0.3403   -1.2077 C   0  0  0  0  0  0  0  0  0  0  0  0
    4.1390   -0.3383    1.2083 C   0  0  0  0  0  0  0  0  0  0  0  0
    4.8316   -0.4232    0.0004 C   0  0  0  0  0  0  0  0  0  0  0  0
   -2.1929   -2.9174   -0.0014 H   0  0  0  0  0  0  0  0  0  0  0  0
   -4.1313    1.6468    0.0004 H   0  0  0  0  0  0  0  0  0  0  0  0
    2.2286   -0.1089   -2.1574 H   0  0  0  0  0  0  0  0  0  0  0  0
    2.2280   -0.1055    2.1571 H   0  0  0  0  0  0  0  0  0  0  0  0
   -4.6170   -2.6064   -0.0018 H   0  0  0  0  0  0  0  0  0  0  0  0
   -5.5983   -0.3306   -0.0009 H   0  0  0  0  0  0  0  0  0  0  0  0
    4.6787   -0.4064   -2.1480 H   0  0  0  0  0  0  0  0  0  0  0  0
    4.6781   -0.4030    2.1488 H   0  0  0  0  0  0  0  0  0  0  0  0
    1.1454   -2.3105    0.0032 H   0  0  0  0  0  0  0  0  0  0  0  0
    5.9098   -0.5539    0.0006 H   0  0  0  0  0  0  0  0  0  0  0  0
  1  7  1  0  0  0  0
  1 28  1  0  0  0  0
  2  9  2  0  0  0  0
  3 10  2  0  0  0  0
  4  6  1  0  0  0  0
  4  7  1  0  0  0  0
  4 11  2  0  0  0  0
  5  7  2  0  0  0  0
  5  8  1  0  0  0  0
  5  9  1  0  0  0  0
  6 10  1  0  0  0  0
  6 12  2  0  0  0  0
  8 14  2  0  0  0  0
  8 15  1  0  0  0  0
  9 10  1  0  0  0  0
 11 13  1  0  0  0  0
 11 20  1  0  0  0  0
 12 16  1  0  0  0  0
 12 21  1  0  0  0  0
 13 16  2  0  0  0  0
 13 24  1  0  0  0  0
 14 17  1  0  0  0  0
 14 22  1  0  0  0  0
 15 18  2  0  0  0  0
 15 23  1  0  0  0  0
 16 25  1  0  0  0  0
 17 19  2  0  0  0  0
 17 26  1  0  0  0  0
 18 19  1  0  0  0  0
 18 27  1  0  0  0  0
 19 29  1  0  0  0  0
M  END
> <PUBCHEM_COMPOUND_CID>
265893

> <PUBCHEM_CONFORMER_RMSD>
0.6

> <PUBCHEM_CONFORMER_DIVERSEORDER>
1

> <PUBCHEM_MMFF94_PARTIAL_CHARGES>
29
1 -0.53
10 0.48
11 -0.15
12 -0.15
13 -0.15
14 -0.15
15 -0.15
16 -0.15
17 -0.15
18 -0.15
19 -0.15
2 -0.57
20 0.15
21 0.15
22 0.15
23 0.15
24 0.15
25 0.15
26 0.15
27 0.15
28 0.45
29 0.15
3 -0.57
4 0.03
5 -0.01
6 0.09
7 0.05
8 0.03
9 0.56

> <PUBCHEM_EFFECTIVE_ROTOR_COUNT>
1

> <PUBCHEM_PHARMACOPHORE_FEATURES>
6
1 1 donor
1 2 acceptor
1 3 acceptor
6 4 5 6 7 9 10 rings
6 4 6 11 12 13 16 rings
6 8 14 15 17 18 19 rings

> <PUBCHEM_HEAVY_ATOM_COUNT>
19

> <PUBCHEM_ATOM_DEF_STEREO_COUNT>
0

> <PUBCHEM_ATOM_UDEF_STEREO_COUNT>
0

> <PUBCHEM_BOND_DEF_STEREO_COUNT>
0

> <PUBCHEM_BOND_UDEF_STEREO_COUNT>
0

> <PUBCHEM_ISOTOPIC_ATOM_COUNT>
0

> <PUBCHEM_COMPONENT_COUNT>
1

> <PUBCHEM_CACTVS_TAUTO_COUNT>
3

> <PUBCHEM_CONFORMER_ID>
00040EA500000001

> <PUBCHEM_MMFF94_ENERGY>
56.8153

> <PUBCHEM_FEATURE_SELFOVERLAP>
30.477

> <PUBCHEM_SHAPE_FINGERPRINT>
10062212 137 18333730238910779979
10319926 262 18197475378427034482
10493431 412 18054519010887640505
10967382 1 18050287269614540293
11132069 177 18413671301033297859
11543360 7 15719392892699662787
11680986 33 18048037664260163721
12236239 1 17748827397948652946
12553582 1 18408604773122612379
13140716 1 18339082713191382673
13862211 1 18410569613386966423
14115302 16 17676774265843896226
14386348 63 17917714595598452030
14790565 3 18338815420102588473
15196674 1 18338517551108276901
15209294 21 17773888506229885505
15375462 189 18040429992741074859
15536298 74 18269836582738043993
15848700 24 18271522082491863318
16752209 62 18335135371425590570
16945 1 18411138005010801477
17357779 13 18271230686420455853
17804303 29 18413107281685871441
18222031 100 18270675489030833007
19141452 34 17775567580686801575
200 152 16515400755435562244
20028762 73 17985550189857400527
20510252 161 18272369733111506192
20905425 154 18197782094051317422
21029758 27 18259991504452361349
21033648 29 17131540674397809226
21267235 1 18410019870600281731
2297311 6 18341905082014161878
2334 1 18122343755561513833
23366157 5 17898288565571592748
23402539 116 18413100667183164622
23557571 272 18201444632134898164
23559900 14 18270967834896570934
2748010 2 18194395817697466773
335352 9 18410573981616327885
34934 24 18337946784657203267
43471831 8 18263077734586319554
474 4 17024605601729653844
5104073 3 18268154339333774787
59755656 215 18266742389772565214
69090 78 17489862752230829854
7364860 26 18055354896942570816
77492 1 17676210139528111872
81228 2 18339940215748480025
8809292 202 18261114127362623243
8863177 126 17608102176252830907

> <PUBCHEM_SHAPE_MULTIPOLES>
373.4
8.71
2.15
0.92
2.85
0.93
0
-2.64
0
-1.83
0
1.11
-0.09
0

> <PUBCHEM_SHAPE_SELFOVERLAP>
836.378

> <PUBCHEM_SHAPE_VOLUME>
196.7

> <PUBCHEM_COORDINATE_TYPE>
2
5
10

$$$$
162366983
  -OEChem-08182309503D

 54 57  0     1  0  0  0  0  0999 V2000
   -3.8064   -1.3715    0.2118 F   0  0  0  0  0  0  0  0  0  0  0  0
   -3.7991   -3.1732   -1.8454 F   0  0  0  0  0  0  0  0  0  0  0  0
   -3.2567    1.6412    0.6001 O   0  0  0  0  0  0  0  0  0  0  0  0
    1.8075   -1.1351    0.0405 O   0  0  0  0  0  0  0  0  0  0  0  0
    0.9013   -3.9377    2.1955 O   0  0  0  0  0  0  0  0  0  0  0  0
    3.1473    0.8775   -0.2259 N   0  0  0  0  0  0  0  0  0  0  0  0
    2.9536    3.0570   -0.2919 N   0  0  0  0  0  0  0  0  0  0  0  0
    4.2941    2.7434   -0.4604 N   0  0  0  0  0  0  0  0  0  0  0  0
    5.4207   -0.7083   -0.4668 N   0  0  0  0  0  0  0  0  0  0  0  0
   -4.0347    2.6857    0.0137 C   0  0  0  0  0  0  0  0  0  0  0  0
   -5.5066    2.4382    0.3414 C   0  0  0  0  0  0  0  0  0  0  0  0
   -3.5639    4.0058    0.6202 C   0  0  0  0  0  0  0  0  0  0  0  0
   -3.8033    2.6751   -1.4965 C   0  0  0  0  0  0  0  0  0  0  0  0
    2.2846    1.9292   -0.1534 C   0  0  0  0  0  0  0  0  0  0  0  0
    0.8574    1.8541    0.0417 C   0  0  0  0  0  0  0  0  0  0  0  0
   -1.9032    1.7108    0.4171 C   0  0  0  0  0  0  0  0  0  0  0  0
    0.7137   -2.7027    1.5075 C   0  0  1  0  0  0  0  0  0  0  0  0
    3.0167   -0.4990   -0.1501 C   0  0  0  0  0  0  0  0  0  0  0  0
    1.9856   -2.3539    0.7355 C   0  0  0  0  0  0  0  0  0  0  0  0
    4.3795    1.4380   -0.4165 C   0  0  0  0  0  0  0  0  0  0  0  0
    0.2718    2.4649    1.1505 C   0  0  0  0  0  0  0  0  0  0  0  0
    0.0627    1.1717   -0.8794 C   0  0  0  0  0  0  0  0  0  0  0  0
   -1.1086    2.3932    1.3383 C   0  0  0  0  0  0  0  0  0  0  0  0
   -1.3176    1.1001   -0.6918 C   0  0  0  0  0  0  0  0  0  0  0  0
   -0.4959   -2.8275    0.6076 C   0  0  0  0  0  0  0  0  0  0  0  0
    4.1463   -1.2332   -0.2720 C   0  0  0  0  0  0  0  0  0  0  0  0
    5.5276    0.5914   -0.5362 C   0  0  0  0  0  0  0  0  0  0  0  0
   -1.6153   -2.0251    0.8284 C   0  0  0  0  0  0  0  0  0  0  0  0
   -0.4923   -3.7462   -0.4420 C   0  0  0  0  0  0  0  0  0  0  0  0
   -2.7311   -2.1413   -0.0004 C   0  0  0  0  0  0  0  0  0  0  0  0
   -1.6082   -3.8624   -1.2708 C   0  0  0  0  0  0  0  0  0  0  0  0
   -2.7275   -3.0600   -1.0501 C   0  0  0  0  0  0  0  0  0  0  0  0
   -5.8314    1.4668   -0.0488 H   0  0  0  0  0  0  0  0  0  0  0  0
   -6.1534    3.2152   -0.0786 H   0  0  0  0  0  0  0  0  0  0  0  0
   -5.6626    2.4039    1.4256 H   0  0  0  0  0  0  0  0  0  0  0  0
   -4.2406    4.8186    0.3294 H   0  0  0  0  0  0  0  0  0  0  0  0
   -2.5691    4.3106    0.2797 H   0  0  0  0  0  0  0  0  0  0  0  0
   -3.5556    3.9663    1.7152 H   0  0  0  0  0  0  0  0  0  0  0  0
   -2.8007    3.0086   -1.7828 H   0  0  0  0  0  0  0  0  0  0  0  0
   -4.5030    3.3573   -1.9942 H   0  0  0  0  0  0  0  0  0  0  0  0
   -3.9625    1.6762   -1.9178 H   0  0  0  0  0  0  0  0  0  0  0  0
    0.5336   -1.9268    2.2616 H   0  0  0  0  0  0  0  0  0  0  0  0
    2.7791   -2.3040    1.4970 H   0  0  0  0  0  0  0  0  0  0  0  0
    2.2326   -3.1626    0.0356 H   0  0  0  0  0  0  0  0  0  0  0  0
    0.8776    2.9946    1.8818 H   0  0  0  0  0  0  0  0  0  0  0  0
    0.4982    0.6948   -1.7543 H   0  0  0  0  0  0  0  0  0  0  0  0
   -1.5454    2.8511    2.2210 H   0  0  0  0  0  0  0  0  0  0  0  0
   -1.9201    0.5529   -1.4108 H   0  0  0  0  0  0  0  0  0  0  0  0
    4.1619   -2.3162   -0.2754 H   0  0  0  0  0  0  0  0  0  0  0  0
    6.5188    1.0463   -0.6897 H   0  0  0  0  0  0  0  0  0  0  0  0
   -1.6342   -1.3085    1.6449 H   0  0  0  0  0  0  0  0  0  0  0  0
    0.3648   -4.3883   -0.6243 H   0  0  0  0  0  0  0  0  0  0  0  0
    0.0420   -4.2190    2.5540 H   0  0  0  0  0  0  0  0  0  0  0  0
   -1.6069   -4.5793   -2.0866 H   0  0  0  0  0  0  0  0  0  0  0  0
  1 30  1  0  0  0  0
  2 32  1  0  0  0  0
  3 10  1  0  0  0  0
  3 16  1  0  0  0  0
  4 18  1  0  0  0  0
  4 19  1  0  0  0  0
  5 17  1  0  0  0  0
  5 53  1  0  0  0  0
  6 14  1  0  0  0  0
  6 18  1  0  0  0  0
  6 20  1  0  0  0  0
  7  8  1  0  0  0  0
  7 14  2  0  0  0  0
  8 20  2  0  0  0  0
  9 26  1  0  0  0  0
  9 27  2  0  0  0  0
 10 11  1  0  0  0  0
 10 12  1  0  0  0  0
 10 13  1  0  0  0  0
 11 33  1  0  0  0  0
 11 34  1  0  0  0  0
 11 35  1  0  0  0  0
 12 36  1  0  0  0  0
 12 37  1  0  0  0  0
 12 38  1  0  0  0  0
 13 39  1  0  0  0  0
 13 40  1  0  0  0  0
 13 41  1  0  0  0  0
 14 15  1  0  0  0  0
 15 21  2  0  0  0  0
 15 22  1  0  0  0  0
 16 23  2  0  0  0  0
 16 24  1  0  0  0  0
 17 19  1  0  0  0  0
 17 25  1  0  0  0  0
 17 42  1  0  0  0  0
 18 26  2  0  0  0  0
 19 43  1  0  0  0  0
 19 44  1  0  0  0  0
 20 27  1  0  0  0  0
 21 23  1  0  0  0  0
 21 45  1  0  0  0  0
 22 24  2  0  0  0  0
 22 46  1  0  0  0  0
 23 47  1  0  0  0  0
 24 48  1  0  0  0  0
 25 28  2  0  0  0  0
 25 29  1  0  0  0  0
 26 49  1  0  0  0  0
 27 50  1  0  0  0  0
 28 30  1  0  0  0  0
 28 51  1  0  0  0  0
 29 31  2  0  0  0  0
 29 52  1  0  0  0  0
 30 32  2  0  0  0  0
 31 32  1  0  0  0  0
 31 54  1  0  0  0  0
M  END
> <PUBCHEM_COMPOUND_CID>
162366983

> <PUBCHEM_CONFORMER_RMSD>
1

> <PUBCHEM_CONFORMER_DIVERSEORDER>
1
95
29
11
82
42
67
90
94
73
14
21
60
53
54
44
85
70
10
87
58
48
84
89
19
37
36
74
27
81
46
93
47
63
23
30
24
64
72
65
88
49
97
41
62
71
45
96
80
92
16
3
7
75
51
13
77
86
18
66
52
31
6
59
69
25
8
9
78
83
39
2
17
50
57
55
98
76
40
4
79
35
5
61
43
12
56
91
26
34
28
22
38
33
20
32
68
15

> <PUBCHEM_MMFF94_PARTIAL_CHARGES>
39
1 -0.19
10 0.28
14 0.13
15 0.05
16 0.08
17 0.42
18 0.05
19 0.28
2 -0.19
20 0.1
21 -0.15
22 -0.15
23 -0.15
24 -0.15
25 -0.14
26 0.02
27 0.47
28 -0.15
29 -0.15
3 -0.36
30 0.19
31 -0.15
32 0.19
4 -0.36
45 0.15
46 0.15
47 0.15
48 0.15
49 0.15
5 -0.68
50 0.06
51 0.15
52 0.15
53 0.4
54 0.15
6 0.33
7 -0.34
8 -0.34
9 -0.62

> <PUBCHEM_EFFECTIVE_ROTOR_COUNT>
7

> <PUBCHEM_PHARMACOPHORE_FEATURES>
12
1 3 acceptor
1 4 acceptor
1 5 acceptor
1 5 donor
1 9 acceptor
3 6 7 14 cation
3 6 8 20 cation
4 10 11 12 13 hydrophobe
5 6 7 8 14 20 rings
6 15 16 21 22 23 24 rings
6 25 28 29 30 31 32 rings
6 6 9 18 20 26 27 rings

> <PUBCHEM_HEAVY_ATOM_COUNT>
32

> <PUBCHEM_ATOM_DEF_STEREO_COUNT>
0

> <PUBCHEM_ATOM_UDEF_STEREO_COUNT>
1

> <PUBCHEM_BOND_DEF_STEREO_COUNT>
0

> <PUBCHEM_BOND_UDEF_STEREO_COUNT>
0

> <PUBCHEM_ISOTOPIC_ATOM_COUNT>
0

> <PUBCHEM_COMPONENT_COUNT>
1

> <PUBCHEM_CACTVS_TAUTO_COUNT>
-1

> <PUBCHEM_CONFORMER_ID>
09AD860700000001

> <PUBCHEM_MMFF94_ENERGY>
110.0971

> <PUBCHEM_FEATURE_SELFOVERLAP>
63.505

> <PUBCHEM_SHAPE_FINGERPRINT>
10483366 6 18270950354844062503
10675989 125 18048579702334312453
10871710 139 18409730690346844415
10930396 42 16831471054225438640
1100329 8 18337952282041132624
11093857 51 18055610851487307375
11513181 2 18201439138360713038
12156800 1 18125410177142247258
12160290 23 17979675455720467201
12293681 4 17975132351385068858
12422481 6 18121251803223911955
12788726 201 18121211241072661368
13140716 1 18335136467080133616
13402501 40 17615401893482649334
1361 2 18051132497656142529
138480 1 17114106564814567351
140371 6 17757555535529227756
14117953 113 17545592362314716247
14279260 333 18411976967439365974
14289585 56 17458337507853157028
14659021 117 18124024904408162450
14681490 219 18124306370906260543
14790565 3 18268434538251997729
14866123 147 18411983567748902067
14931854 50 18193550288422956166
15274700 147 15801333116091876652
15297060 5 17844523314466901043
15484559 13 17834113044476128639
15664445 248 17117486472464783821
15927050 60 18412263896290747471
15968369 153 18200017586527930635
16728300 4 16810651333569999226
17138139 8 18058140935227473765
18681886 176 17907572528376713434
19311894 1 18343308032875769366
19319366 153 17607827001660852778
19930381 70 17617380576246737249
20764821 26 18409440397253207160
21133410 171 17405088301776489774
21133410 62 18187352243790537247
21197605 99 18336281072091874627
21796203 349 17257966713252986066
22113638 7 18049993394629760155
23559900 14 18343864412183894704
244849 19 17346301735981063738
266924 87 17977671136681536100
283562 15 18192706975910016851
3298306 158 18116438037721503177
3380486 145 17470746853893167514
338550 245 18261684747779534052
38695281 34 18195530290201088489
4066623 53 17907826812089221791
463206 1 17979075212687320987
469060 322 17167866370001176575
5048184 11 18336829697358854216
5171179 24 17915172649063662928
6036956 94 17685501239789215965
653340 110 18269546311984783448
7226269 152 17758104179347246464

> <PUBCHEM_SHAPE_MULTIPOLES>
606.47
9.67
6.28
1.3
3.09
4.12
-0.15
-7.41
2.05
-4.12
-0.04
-0.57
0.83
-1.9

> <PUBCHEM_SHAPE_SELFOVERLAP>
1328.511

> <PUBCHEM_SHAPE_VOLUME>
330

> <PUBCHEM_COORDINATE_TYPE>
2
5
10

$$$$
162640602
  -OEChem-08182309503D

 60 63  0     0  0  0  0  0  0999 V2000
   -3.0817    1.7224    0.6758 O   0  0  0  0  0  0  0  0  0  0  0  0
   -0.5712    1.2930    1.7975 O   0  0  0  0  0  0  0  0  0  0  0  0
    4.5308    2.0612    0.5553 O   0  0  0  0  0  0  0  0  0  0  0  0
   -5.3379   -4.8703   -0.3142 O   0  0  0  0  0  0  0  0  0  0  0  0
   -6.6020   -3.8475   -1.9020 O   0  0  0  0  0  0  0  0  0  0  0  0
    1.4790    1.4911    0.7955 N   0  0  0  0  0  0  0  0  0  0  0  0
    1.9699    3.1624   -0.8157 N   0  0  0  0  0  0  0  0  0  0  0  0
    3.8114    0.6263   -1.1550 N   0  0  0  0  0  0  0  0  0  0  0  0
   -0.2712    3.0369    0.2019 C   0  0  0  0  0  0  0  0  0  0  0  0
   -1.5752    3.5272    0.3181 C   0  0  0  0  0  0  0  0  0  0  0  0
    0.6495    3.6328   -0.6758 C   0  0  0  0  0  0  0  0  0  0  0  0
   -2.6035    2.9407    1.2300 C   0  0  0  0  0  0  0  0  0  0  0  0
    0.1645    1.8727    1.0076 C   0  0  0  0  0  0  0  0  0  0  0  0
    5.2344   -1.2769   -0.5912 C   0  0  0  0  0  0  0  0  0  0  0  0
    5.0610   -0.0443   -1.4309 C   0  0  0  0  0  0  0  0  0  0  0  0
   -1.9677    4.6235   -0.4483 C   0  0  0  0  0  0  0  0  0  0  0  0
    2.3031    2.1452   -0.0920 C   0  0  0  0  0  0  0  0  0  0  0  0
    4.6840   -3.5814   -0.1186 C   0  0  0  0  0  0  0  0  0  0  0  0
    0.2375    4.7319   -1.4367 C   0  0  0  0  0  0  0  0  0  0  0  0
    4.5227   -2.4365   -0.8988 C   0  0  0  0  0  0  0  0  0  0  0  0
   -1.0641    5.2247   -1.3236 C   0  0  0  0  0  0  0  0  0  0  0  0
    3.9234   -4.8213   -0.4471 C   0  0  0  0  0  0  0  0  0  0  0  0
    3.6776    1.6052   -0.1943 C   0  0  0  0  0  0  0  0  0  0  0  0
   -4.0654    1.1216    1.5069 C   0  0  0  0  0  0  0  0  0  0  0  0
    6.1075   -1.2623    0.4966 C   0  0  0  0  0  0  0  0  0  0  0  0
    5.5571   -3.5668    0.9691 C   0  0  0  0  0  0  0  0  0  0  0  0
   -4.5297   -0.1557    0.8711 C   0  0  0  0  0  0  0  0  0  0  0  0
    6.2688   -2.4072    1.2768 C   0  0  0  0  0  0  0  0  0  0  0  0
    2.5740   -4.8808    0.2644 C   0  0  0  0  0  0  0  0  0  0  0  0
   -5.3877   -0.1153   -0.2279 C   0  0  0  0  0  0  0  0  0  0  0  0
   -4.1038   -1.3832    1.3787 C   0  0  0  0  0  0  0  0  0  0  0  0
   -5.8199   -1.3024   -0.8193 C   0  0  0  0  0  0  0  0  0  0  0  0
   -4.5359   -2.5702    0.7871 C   0  0  0  0  0  0  0  0  0  0  0  0
   -5.3940   -2.5298   -0.3119 C   0  0  0  0  0  0  0  0  0  0  0  0
   -5.8451   -3.7670   -0.9291 C   0  0  0  0  0  0  0  0  0  0  0  0
   -2.2179    2.8114    2.2477 H   0  0  0  0  0  0  0  0  0  0  0  0
   -3.4535    3.6290    1.3315 H   0  0  0  0  0  0  0  0  0  0  0  0
    5.0693   -0.3097   -2.4941 H   0  0  0  0  0  0  0  0  0  0  0  0
    5.8868    0.6583   -1.2681 H   0  0  0  0  0  0  0  0  0  0  0  0
   -2.9756    5.0252   -0.3822 H   0  0  0  0  0  0  0  0  0  0  0  0
    0.9294    5.2124   -2.1242 H   0  0  0  0  0  0  0  0  0  0  0  0
    1.8380    0.6976    1.3190 H   0  0  0  0  0  0  0  0  0  0  0  0
    3.8409   -2.4461   -1.7461 H   0  0  0  0  0  0  0  0  0  0  0  0
   -1.3732    6.0783   -1.9201 H   0  0  0  0  0  0  0  0  0  0  0  0
    3.7664   -4.8883   -1.5310 H   0  0  0  0  0  0  0  0  0  0  0  0
    4.5151   -5.7056   -0.1792 H   0  0  0  0  0  0  0  0  0  0  0  0
    2.9951    0.3460   -1.6913 H   0  0  0  0  0  0  0  0  0  0  0  0
   -4.9190    1.7991    1.6343 H   0  0  0  0  0  0  0  0  0  0  0  0
   -3.6432    0.9267    2.5004 H   0  0  0  0  0  0  0  0  0  0  0  0
    6.6668   -0.3654    0.7489 H   0  0  0  0  0  0  0  0  0  0  0  0
    5.6902   -4.4516    1.5860 H   0  0  0  0  0  0  0  0  0  0  0  0
    6.9478   -2.3956    2.1243 H   0  0  0  0  0  0  0  0  0  0  0  0
    1.9403   -4.0329   -0.0170 H   0  0  0  0  0  0  0  0  0  0  0  0
    2.6988   -4.8617    1.3523 H   0  0  0  0  0  0  0  0  0  0  0  0
    2.0471   -5.8026   -0.0016 H   0  0  0  0  0  0  0  0  0  0  0  0
   -5.7251    0.8357   -0.6317 H   0  0  0  0  0  0  0  0  0  0  0  0
   -3.4335   -1.4288    2.2329 H   0  0  0  0  0  0  0  0  0  0  0  0
   -6.4882   -1.2493   -1.6748 H   0  0  0  0  0  0  0  0  0  0  0  0
   -4.1796   -3.5036    1.2138 H   0  0  0  0  0  0  0  0  0  0  0  0
   -5.6478   -5.6992   -0.7377 H   0  0  0  0  0  0  0  0  0  0  0  0
  1 12  1  0  0  0  0
  1 24  1  0  0  0  0
  2 13  2  0  0  0  0
  3 23  2  0  0  0  0
  4 35  1  0  0  0  0
  4 60  1  0  0  0  0
  5 35  2  0  0  0  0
  6 13  1  0  0  0  0
  6 17  1  0  0  0  0
  6 42  1  0  0  0  0
  7 11  1  0  0  0  0
  7 17  2  0  0  0  0
  8 15  1  0  0  0  0
  8 23  1  0  0  0  0
  8 47  1  0  0  0  0
  9 10  2  0  0  0  0
  9 11  1  0  0  0  0
  9 13  1  0  0  0  0
 10 12  1  0  0  0  0
 10 16  1  0  0  0  0
 11 19  2  0  0  0  0
 12 36  1  0  0  0  0
 12 37  1  0  0  0  0
 14 15  1  0  0  0  0
 14 20  1  0  0  0  0
 14 25  2  0  0  0  0
 15 38  1  0  0  0  0
 15 39  1  0  0  0  0
 16 21  2  0  0  0  0
 16 40  1  0  0  0  0
 17 23  1  0  0  0  0
 18 20  2  0  0  0  0
 18 22  1  0  0  0  0
 18 26  1  0  0  0  0
 19 21  1  0  0  0  0
 19 41  1  0  0  0  0
 20 43  1  0  0  0  0
 21 44  1  0  0  0  0
 22 29  1  0  0  0  0
 22 45  1  0  0  0  0
 22 46  1  0  0  0  0
 24 27  1  0  0  0  0
 24 48  1  0  0  0  0
 24 49  1  0  0  0  0
 25 28  1  0  0  0  0
 25 50  1  0  0  0  0
 26 28  2  0  0  0  0
 26 51  1  0  0  0  0
 27 30  2  0  0  0  0
 27 31  1  0  0  0  0
 28 52  1  0  0  0  0
 29 53  1  0  0  0  0
 29 54  1  0  0  0  0
 29 55  1  0  0  0  0
 30 32  1  0  0  0  0
 30 56  1  0  0  0  0
 31 33  2  0  0  0  0
 31 57  1  0  0  0  0
 32 34  2  0  0  0  0
 32 58  1  0  0  0  0
 33 34  1  0  0  0  0
 33 59  1  0  0  0  0
 34 35  1  0  0  0  0
M  END
> <PUBCHEM_COMPOUND_CID>
162640602

> <PUBCHEM_CONFORMER_RMSD>
1

> <PUBCHEM_CONFORMER_DIVERSEORDER>
1
65
103
92
130
32
57
110
115
96
70
127
31
114
71
123
10
48
102
73
104
107
37
135
95
128
58
132
105
117
76
116
62
109
101
81
100
69
88
94
82
97
36
72
111
93
122
126
74
34
38
89
131
106
28
129
121
84
47
17
77
125
43
18
40
39
68
26
60
118
63
22
98
78
136
45
112
134
64
44
52
55
30
83
8
29
120
42
99
54
124
108
14
75
59
21
85
67
61
90
41
80
23
113
91
12
19
7
133
46
86
51
33
56
9
20
119
79
16
27
11
66
53
49
15
13
5
87
50
25
35
24
4
3
2
6

> <PUBCHEM_MMFF94_PARTIAL_CHARGES>
48
1 -0.56
10 -0.14
11 0.18
12 0.42
13 0.54
14 -0.14
15 0.44
16 -0.15
17 0.51
18 -0.14
19 -0.15
2 -0.57
20 -0.15
21 -0.15
22 0.14
23 0.63
24 0.42
25 -0.15
26 -0.15
27 -0.14
28 -0.15
3 -0.57
30 -0.15
31 -0.15
32 -0.15
33 -0.15
34 0.09
35 0.63
4 -0.65
40 0.15
41 0.15
42 0.37
43 0.15
44 0.15
47 0.37
5 -0.57
50 0.15
51 0.15
52 0.15
56 0.15
57 0.15
58 0.15
59 0.15
6 -0.49
60 0.5
7 -0.63
8 -0.73
9 0.09

> <PUBCHEM_EFFECTIVE_ROTOR_COUNT>
10

> <PUBCHEM_PHARMACOPHORE_FEATURES>
13
1 1 acceptor
1 2 acceptor
1 29 hydrophobe
1 3 acceptor
1 4 acceptor
1 5 acceptor
1 6 donor
1 8 donor
3 4 5 35 anion
6 14 18 20 25 26 28 rings
6 27 30 31 32 33 34 rings
6 6 7 9 11 13 17 rings
6 9 10 11 16 19 21 rings

> <PUBCHEM_HEAVY_ATOM_COUNT>
35

> <PUBCHEM_ATOM_DEF_STEREO_COUNT>
0

> <PUBCHEM_ATOM_UDEF_STEREO_COUNT>
0

> <PUBCHEM_BOND_DEF_STEREO_COUNT>
0

> <PUBCHEM_BOND_UDEF_STEREO_COUNT>
0

> <PUBCHEM_ISOTOPIC_ATOM_COUNT>
0

> <PUBCHEM_COMPONENT_COUNT>
1

> <PUBCHEM_CACTVS_TAUTO_COUNT>
-1

> <PUBCHEM_CONFORMER_ID>
09B1B2DA00000001

> <PUBCHEM_MMFF94_ENERGY>
91.0155

> <PUBCHEM_FEATURE_SELFOVERLAP>
66.064

> <PUBCHEM_SHAPE_FINGERPRINT>
10556698 54 12685661138805447847
10622 236 18269275823919277809
11204353 107 17110730514382508978
11227688 84 18114474439314901203
11497681 19 18271253811068326532
11607047 403 17983283018286808280
117089 54 18269003144614245999
12977781 61 18195220288194425760
131258 38 17626650958312397173
13165053 137 15309278985350155122
13347071 3 17834114139857488642
1361 4 18413110533456194886
14347332 77 18263087625948697776
14790565 3 9260669666007950921
15019793 15 18339924793017142778
15320291 9 17907299849272193002
15467298 65 18340215115278388538
15569901 51 18124311876822920135
15803439 3 16526689724633911429
15911013 46 18343863312112922745
19301676 85 17689151206471755607
19303781 99 17895203156024308578
19315092 285 17774726470969911857
19319366 153 17478330194248425349
20775438 99 17902510720223337216
21133410 171 17536266506741768611
21133410 58 18119517993346221591
260245 28 18055630870208971007
3146122 67 18266201494233823450
32027 91 18413665816730092737
4017518 198 17761493591465468981
4046055 25 18408323310973242925
4280585 95 18409164377296529761
437795 96 17764029060509029318
4408954 87 17628906027139818442
44880168 125 18411702046229191177
4756088 132 18265041432410413474
50009960 94 18335967732410124362
50080093 196 18263652757534964091
6058803 2 18124905557895209217
6201320 77 17389977722460973683
6201460 15 18341337712245026743
7970288 3 18411138065034933181
9831232 110 18049719917752865743

> <PUBCHEM_SHAPE_MULTIPOLES>
675.99
17.32
9.34
1.45
2.75
0.73
-0.01
26.92
1.12
-4.71
3.21
-0.66
-0.08
-2.8

> <PUBCHEM_SHAPE_SELFOVERLAP>
1470.039

> <PUBCHEM_SHAPE_VOLUME>
365.8

> <PUBCHEM_COORDINATE_TYPE>
2
5
10

$$$$
71521073
  -OEChem-08182309503D

 76 79  0     1  0  0  0  0  0999 V2000
   -2.4580   -0.2653    3.6950 O   0  0  0  0  0  0  0  0  0  0  0  0
    4.4558    2.8462   -1.7111 O   0  0  0  0  0  0  0  0  0  0  0  0
   -1.5984    2.8569    1.7592 O   0  0  0  0  0  0  0  0  0  0  0  0
    5.1895    1.1733   -0.2523 N   0  0  0  0  0  0  0  0  0  0  0  0
    6.9297   -1.0601    0.1809 N   0  0  0  0  0  0  0  0  0  0  0  0
   -1.7949    0.6554    1.0580 N   0  0  0  0  0  0  0  0  0  0  0  0
   -1.3876   -2.0456    1.6585 N   0  0  0  0  0  0  0  0  0  0  0  0
   -3.1581    0.4607    1.4967 C   0  0  2  0  0  0  0  0  0  0  0  0
   -3.2432   -0.6528    2.5644 C   0  0  1  0  0  0  0  0  0  0  0  0
    6.5662    1.1973   -0.7416 C   0  0  0  0  0  0  0  0  0  0  0  0
    4.9557    0.2621    0.8734 C   0  0  0  0  0  0  0  0  0  0  0  0
    7.0842   -0.2143   -1.0117 C   0  0  0  0  0  0  0  0  0  0  0  0
    5.5169   -1.1311    0.5807 C   0  0  0  0  0  0  0  0  0  0  0  0
   -4.0708    0.1519    0.2928 C   0  0  0  0  0  0  0  0  0  0  0  0
   -2.7744   -2.0405    2.1036 C   0  0  0  0  0  0  0  0  0  0  0  0
   -0.9886   -3.3732    1.2114 C   0  0  1  0  0  0  0  0  0  0  0  0
    4.2427    2.0348   -0.8115 C   0  0  0  0  0  0  0  0  0  0  0  0
   -4.3936    1.3772   -0.5303 C   0  0  0  0  0  0  0  0  0  0  0  0
    7.4613   -2.3995   -0.0673 C   0  0  0  0  0  0  0  0  0  0  0  0
    2.8703    1.9896   -0.2896 C   0  0  0  0  0  0  0  0  0  0  0  0
   -1.0939    1.8563    1.2195 C   0  0  0  0  0  0  0  0  0  0  0  0
   -1.4829   -3.6577   -0.1930 C   0  0  0  0  0  0  0  0  0  0  0  0
    0.2643    1.9024    0.7021 C   0  0  0  0  0  0  0  0  0  0  0  0
    0.5309   -3.5198    1.3181 C   0  0  0  0  0  0  0  0  0  0  0  0
   -5.5156    2.1476   -0.2249 C   0  0  0  0  0  0  0  0  0  0  0  0
   -3.5688    1.7383   -1.5957 C   0  0  0  0  0  0  0  0  0  0  0  0
    1.9356    1.1254   -0.8597 C   0  0  0  0  0  0  0  0  0  0  0  0
    2.5018    2.8105    0.7763 C   0  0  0  0  0  0  0  0  0  0  0  0
    0.6326    1.0816   -0.3639 C   0  0  0  0  0  0  0  0  0  0  0  0
    1.1988    2.7669    1.2722 C   0  0  0  0  0  0  0  0  0  0  0  0
   -1.5776   -2.6221   -1.1228 C   0  0  0  0  0  0  0  0  0  0  0  0
   -1.8426   -4.9556   -0.5557 C   0  0  0  0  0  0  0  0  0  0  0  0
   -5.8129    3.2789   -0.9848 C   0  0  0  0  0  0  0  0  0  0  0  0
   -3.8659    2.8696   -2.3555 C   0  0  0  0  0  0  0  0  0  0  0  0
   -4.9881    3.6399   -2.0501 C   0  0  0  0  0  0  0  0  0  0  0  0
   -2.0319   -2.8845   -2.4152 C   0  0  0  0  0  0  0  0  0  0  0  0
   -2.2968   -5.2181   -1.8482 C   0  0  0  0  0  0  0  0  0  0  0  0
   -2.3917   -4.1824   -2.7779 C   0  0  0  0  0  0  0  0  0  0  0  0
   -3.4976    1.3892    1.9731 H   0  0  0  0  0  0  0  0  0  0  0  0
   -4.2793   -0.7396    2.9141 H   0  0  0  0  0  0  0  0  0  0  0  0
    7.1739    1.6895    0.0277 H   0  0  0  0  0  0  0  0  0  0  0  0
    6.6419    1.8002   -1.6524 H   0  0  0  0  0  0  0  0  0  0  0  0
    3.8939    0.1814    1.1161 H   0  0  0  0  0  0  0  0  0  0  0  0
    5.4562    0.6994    1.7461 H   0  0  0  0  0  0  0  0  0  0  0  0
    6.5445   -0.6469   -1.8647 H   0  0  0  0  0  0  0  0  0  0  0  0
    8.1428   -0.1473   -1.2899 H   0  0  0  0  0  0  0  0  0  0  0  0
    5.4137   -1.7416    1.4858 H   0  0  0  0  0  0  0  0  0  0  0  0
    4.9174   -1.6063   -0.2074 H   0  0  0  0  0  0  0  0  0  0  0  0
   -5.0183   -0.2774    0.6447 H   0  0  0  0  0  0  0  0  0  0  0  0
   -3.6254   -0.6096   -0.3579 H   0  0  0  0  0  0  0  0  0  0  0  0
   -2.8772   -2.7271    2.9542 H   0  0  0  0  0  0  0  0  0  0  0  0
   -3.4460   -2.3954    1.3141 H   0  0  0  0  0  0  0  0  0  0  0  0
   -1.3259   -0.1475    0.6571 H   0  0  0  0  0  0  0  0  0  0  0  0
   -0.7960   -1.7400    2.4310 H   0  0  0  0  0  0  0  0  0  0  0  0
   -1.4133   -4.1245    1.8922 H   0  0  0  0  0  0  0  0  0  0  0  0
    7.3845   -3.0166    0.8349 H   0  0  0  0  0  0  0  0  0  0  0  0
    8.5254   -2.3493   -0.3232 H   0  0  0  0  0  0  0  0  0  0  0  0
    6.9345   -2.9111   -0.8810 H   0  0  0  0  0  0  0  0  0  0  0  0
   -2.7995    0.5884    4.0111 H   0  0  0  0  0  0  0  0  0  0  0  0
    1.0515   -2.7963    0.6794 H   0  0  0  0  0  0  0  0  0  0  0  0
    0.8506   -4.5210    1.0076 H   0  0  0  0  0  0  0  0  0  0  0  0
    0.8717   -3.3681    2.3486 H   0  0  0  0  0  0  0  0  0  0  0  0
   -6.1644    1.8781    0.6042 H   0  0  0  0  0  0  0  0  0  0  0  0
   -2.6927    1.1456   -1.8454 H   0  0  0  0  0  0  0  0  0  0  0  0
    2.2108    0.4870   -1.6954 H   0  0  0  0  0  0  0  0  0  0  0  0
    3.2229    3.4864    1.2286 H   0  0  0  0  0  0  0  0  0  0  0  0
   -0.0717    0.4232   -0.8612 H   0  0  0  0  0  0  0  0  0  0  0  0
    0.9326    3.4107    2.1065 H   0  0  0  0  0  0  0  0  0  0  0  0
   -1.2805   -1.6081   -0.8862 H   0  0  0  0  0  0  0  0  0  0  0  0
   -1.7718   -5.7715    0.1586 H   0  0  0  0  0  0  0  0  0  0  0  0
   -6.6861    3.8791   -0.7466 H   0  0  0  0  0  0  0  0  0  0  0  0
   -3.2236    3.1507   -3.1850 H   0  0  0  0  0  0  0  0  0  0  0  0
   -5.2193    4.5209   -2.6417 H   0  0  0  0  0  0  0  0  0  0  0  0
   -2.1001   -2.0791   -3.1407 H   0  0  0  0  0  0  0  0  0  0  0  0
   -2.5762   -6.2288   -2.1310 H   0  0  0  0  0  0  0  0  0  0  0  0
   -2.7441   -4.3870   -3.7846 H   0  0  0  0  0  0  0  0  0  0  0  0
  1  9  1  0  0  0  0
  1 59  1  0  0  0  0
  2 17  2  0  0  0  0
  3 21  2  0  0  0  0
  4 10  1  0  0  0  0
  4 11  1  0  0  0  0
  4 17  1  0  0  0  0
  5 12  1  0  0  0  0
  5 13  1  0  0  0  0
  5 19  1  0  0  0  0
  6  8  1  0  0  0  0
  6 21  1  0  0  0  0
  6 53  1  0  0  0  0
  7 15  1  0  0  0  0
  7 16  1  0  0  0  0
  7 54  1  0  0  0  0
  8  9  1  0  0  0  0
  8 14  1  0  0  0  0
  8 39  1  0  0  0  0
  9 15  1  0  0  0  0
  9 40  1  0  0  0  0
 10 12  1  0  0  0  0
 10 41  1  0  0  0  0
 10 42  1  0  0  0  0
 11 13  1  0  0  0  0
 11 43  1  0  0  0  0
 11 44  1  0  0  0  0
 12 45  1  0  0  0  0
 12 46  1  0  0  0  0
 13 47  1  0  0  0  0
 13 48  1  0  0  0  0
 14 18  1  0  0  0  0
 14 49  1  0  0  0  0
 14 50  1  0  0  0  0
 15 51  1  0  0  0  0
 15 52  1  0  0  0  0
 16 22  1  0  0  0  0
 16 24  1  0  0  0  0
 16 55  1  0  0  0  0
 17 20  1  0  0  0  0
 18 25  2  0  0  0  0
 18 26  1  0  0  0  0
 19 56  1  0  0  0  0
 19 57  1  0  0  0  0
 19 58  1  0  0  0  0
 20 27  2  0  0  0  0
 20 28  1  0  0  0  0
 21 23  1  0  0  0  0
 22 31  2  0  0  0  0
 22 32  1  0  0  0  0
 23 29  2  0  0  0  0
 23 30  1  0  0  0  0
 24 60  1  0  0  0  0
 24 61  1  0  0  0  0
 24 62  1  0  0  0  0
 25 33  1  0  0  0  0
 25 63  1  0  0  0  0
 26 34  2  0  0  0  0
 26 64  1  0  0  0  0
 27 29  1  0  0  0  0
 27 65  1  0  0  0  0
 28 30  2  0  0  0  0
 28 66  1  0  0  0  0
 29 67  1  0  0  0  0
 30 68  1  0  0  0  0
 31 36  1  0  0  0  0
 31 69  1  0  0  0  0
 32 37  2  0  0  0  0
 32 70  1  0  0  0  0
 33 35  2  0  0  0  0
 33 71  1  0  0  0  0
 34 35  1  0  0  0  0
 34 72  1  0  0  0  0
 35 73  1  0  0  0  0
 36 38  2  0  0  0  0
 36 74  1  0  0  0  0
 37 38  1  0  0  0  0
 37 75  1  0  0  0  0
 38 76  1  0  0  0  0
M  END
> <PUBCHEM_COMPOUND_CID>
71521073

> <PUBCHEM_CONFORMER_RMSD>
1.2

> <PUBCHEM_CONFORMER_DIVERSEORDER>
3
67
97
50
127
131
15
157
37
228
163
224
143
23
110
182
241
233
156
204
108
173
248
178
134
254
208
179
73
98
246
214
218
229
142
237
64
84
251
106
231
232
19
94
174
190
35
102
147
206
213
203
69
154
222
171
168
103
150
20
62
189
144
99
54
215
132
129
133
195
250
91
177
245
59
212
230
45
83
25
166
240
181
92
252
186
85
227
6
221
165
169
125
53
184
199
225
170
191
226
197
51
234
141
139
32
52
239
180
121
123
30
151
219
61
68
138
65
18
80
119
193
172
57
96
89
113
176
76
149
194
135
114
209
183
146
159
86
175
167
81
41
235
9
253
243
220
196
128
49
34
216
58
158
242
71
136
187
155
39
117
40
21
104
29
115
38
247
28
70
244
185
16
107
118
47
74
72
33
192
90
101
100
27
148
82
46
11
95
122
60
44
205
153
56
201
238
42
78
8
13
88
4
120
79
152
109
124
14
210
43
188
164
75
116
249
145
198
140
130
36
217
126
160
77
22
137
236
63
93
55
161
7
202
17
207
223
24
31
211
1
10
200
48
111
26
2
12
66
87
105
162
5
112

> <PUBCHEM_MMFF94_PARTIAL_CHARGES>
54
1 -0.68
10 0.3
11 0.3
12 0.27
13 0.27
14 0.14
15 0.27
16 0.41
17 0.54
18 -0.14
19 0.27
2 -0.57
20 0.09
21 0.54
22 -0.14
23 0.09
25 -0.15
26 -0.15
27 -0.15
28 -0.15
29 -0.15
3 -0.57
30 -0.15
31 -0.15
32 -0.15
33 -0.15
34 -0.15
35 -0.15
36 -0.15
37 -0.15
38 -0.15
4 -0.66
5 -0.81
53 0.37
54 0.36
59 0.4
6 -0.73
63 0.15
64 0.15
65 0.15
66 0.15
67 0.15
68 0.15
69 0.15
7 -0.9
70 0.15
71 0.15
72 0.15
73 0.15
74 0.15
75 0.15
76 0.15
8 0.3
9 0.28

> <PUBCHEM_EFFECTIVE_ROTOR_COUNT>
13.2

> <PUBCHEM_PHARMACOPHORE_FEATURES>
12
1 1 acceptor
1 1 donor
1 2 acceptor
1 3 acceptor
1 5 cation
1 6 donor
1 7 cation
1 7 donor
6 18 25 26 33 34 35 rings
6 20 23 27 28 29 30 rings
6 22 31 32 36 37 38 rings
6 4 5 10 11 12 13 rings

> <PUBCHEM_HEAVY_ATOM_COUNT>
38

> <PUBCHEM_ATOM_DEF_STEREO_COUNT>
3

> <PUBCHEM_ATOM_UDEF_STEREO_COUNT>
0

> <PUBCHEM_BOND_DEF_STEREO_COUNT>
0

> <PUBCHEM_BOND_UDEF_STEREO_COUNT>
0

> <PUBCHEM_ISOTOPIC_ATOM_COUNT>
0

> <PUBCHEM_COMPONENT_COUNT>
1

> <PUBCHEM_CACTVS_TAUTO_COUNT>
2

> <PUBCHEM_CONFORMER_ID>
0443533100000003

> <PUBCHEM_MMFF94_ENERGY>
96.7303

> <PUBCHEM_FEATURE_SELFOVERLAP>
60.904

> <PUBCHEM_SHAPE_FINGERPRINT>
10622 236 17841997981588226838
11513181 2 17770224856192937990
11524674 6 18410291376630656125
11991303 11 18408884048849318861
12977781 61 17485617632446405032
14068700 686 17547278365061062688
14114206 34 17755297112838665819
14856354 85 17022910050976673997
15160629 57 17827341194941128841
15183329 4 17603582976665975976
15264996 74 17916849288701474854
15274700 242 18059019363318872417
15439362 3 17825944824207548925
15444296 9 18337688481472478347
15664445 248 17328009977057592347
15684973 49 17986106318679218368
16628084 112 18192715763720001803
18603816 31 18337939126698989606
19311894 1 18272081746937792815
21703447 108 17624686152730281712
3298306 158 18334852775731441249
3383291 50 18272086063274657754
4394409 98 18339358548612205068
5080951 261 17988082330078999626
5085150 59 18265886974062664824
513202 73 18042415792719925739
5265222 85 18186525410117982452
70251023 43 17548972708036109923

> <PUBCHEM_SHAPE_MULTIPOLES>
744.49
15.24
6.87
2.65
29.66
8.06
-0.61
-7.29
5.17
-7.21
3.57
-3.6
0.96
0.23

> <PUBCHEM_SHAPE_SELFOVERLAP>
1573.193

> <PUBCHEM_SHAPE_VOLUME>
414.9

> <PUBCHEM_COORDINATE_TYPE>
2
5
10

$$$$
1252391
  -OEChem-08182309503D

 50 55  0     1  0  0  0  0  0999 V2000
   -8.3823   -1.5459   -0.8018 Br  0  0  0  0  0  0  0  0  0  0  0  0
    0.7405    6.0028   -1.1795 Cl  0  0  0  0  0  0  0  0  0  0  0  0
   -2.5909   -0.1388   -0.2199 O   0  0  0  0  0  0  0  0  0  0  0  0
   -0.9347   -0.2122    2.8052 O   0  0  0  0  0  0  0  0  0  0  0  0
    0.0687   -0.4191    0.6984 N   0  0  0  0  0  0  0  0  0  0  0  0
    3.7811    0.0618    0.7786 N   0  0  0  0  0  0  0  0  0  0  0  0
    1.2718    0.4122    1.0033 C   0  0  1  0  0  0  0  0  0  0  0  0
    2.4915   -0.3201    0.5327 C   0  0  0  0  0  0  0  0  0  0  0  0
    2.5196   -1.4880   -0.2015 C   0  0  0  0  0  0  0  0  0  0  0  0
    1.2683   -2.1819   -0.6097 C   0  0  0  0  0  0  0  0  0  0  0  0
    0.0831   -1.2041   -0.5652 C   0  0  0  0  0  0  0  0  0  0  0  0
    3.8829   -1.8247   -0.4239 C   0  0  0  0  0  0  0  0  0  0  0  0
    4.6520   -0.8355    0.1983 C   0  0  0  0  0  0  0  0  0  0  0  0
    1.1382    1.8239    0.4524 C   0  0  0  0  0  0  0  0  0  0  0  0
   -1.0142   -0.3759    1.5884 C   0  0  0  0  0  0  0  0  0  0  0  0
    4.5433   -2.8759   -1.0911 C   0  0  0  0  0  0  0  0  0  0  0  0
    6.0515   -0.8471    0.1808 C   0  0  0  0  0  0  0  0  0  0  0  0
    1.5856    2.1084   -0.8341 C   0  0  0  0  0  0  0  0  0  0  0  0
    0.5688    2.8210    1.2383 C   0  0  0  0  0  0  0  0  0  0  0  0
   -2.3673   -0.5527    1.0488 C   0  0  0  0  0  0  0  0  0  0  0  0
    5.9424   -2.8987   -1.1158 C   0  0  0  0  0  0  0  0  0  0  0  0
    6.6828   -1.8985   -0.4894 C   0  0  0  0  0  0  0  0  0  0  0  0
    1.4624    3.4026   -1.3395 C   0  0  0  0  0  0  0  0  0  0  0  0
    0.4457    4.1152    0.7329 C   0  0  0  0  0  0  0  0  0  0  0  0
   -3.4968   -1.0811    1.6114 C   0  0  0  0  0  0  0  0  0  0  0  0
    0.8925    4.4061   -0.5559 C   0  0  0  0  0  0  0  0  0  0  0  0
   -4.5076   -0.9916    0.6183 C   0  0  0  0  0  0  0  0  0  0  0  0
   -3.9001   -0.4058   -0.4876 C   0  0  0  0  0  0  0  0  0  0  0  0
   -5.8667   -1.3404    0.5318 C   0  0  0  0  0  0  0  0  0  0  0  0
   -4.5547   -0.1386   -1.6887 C   0  0  0  0  0  0  0  0  0  0  0  0
   -6.5520   -1.0838   -0.6637 C   0  0  0  0  0  0  0  0  0  0  0  0
   -5.9054   -0.4936   -1.7526 C   0  0  0  0  0  0  0  0  0  0  0  0
    1.3490    0.4885    2.0969 H   0  0  0  0  0  0  0  0  0  0  0  0
    1.3631   -2.6038   -1.6159 H   0  0  0  0  0  0  0  0  0  0  0  0
    1.0862   -3.0104    0.0856 H   0  0  0  0  0  0  0  0  0  0  0  0
    0.1295   -0.4905   -1.3955 H   0  0  0  0  0  0  0  0  0  0  0  0
   -0.8366   -1.7860   -0.6694 H   0  0  0  0  0  0  0  0  0  0  0  0
    4.0580    0.8824    1.2998 H   0  0  0  0  0  0  0  0  0  0  0  0
    3.9797   -3.6630   -1.5840 H   0  0  0  0  0  0  0  0  0  0  0  0
    6.6297   -0.0703    0.6698 H   0  0  0  0  0  0  0  0  0  0  0  0
    2.0186    1.3476   -1.4765 H   0  0  0  0  0  0  0  0  0  0  0  0
    0.2160    2.6072    2.2434 H   0  0  0  0  0  0  0  0  0  0  0  0
    6.4558   -3.7069   -1.6299 H   0  0  0  0  0  0  0  0  0  0  0  0
    7.7687   -1.9360   -0.5207 H   0  0  0  0  0  0  0  0  0  0  0  0
    1.8114    3.6142   -2.3470 H   0  0  0  0  0  0  0  0  0  0  0  0
   -0.0008    4.8869    1.3547 H   0  0  0  0  0  0  0  0  0  0  0  0
   -3.5930   -1.4841    2.6100 H   0  0  0  0  0  0  0  0  0  0  0  0
   -6.3672   -1.7994    1.3798 H   0  0  0  0  0  0  0  0  0  0  0  0
   -4.0461    0.3193   -2.5287 H   0  0  0  0  0  0  0  0  0  0  0  0
   -6.4478   -0.2994   -2.6757 H   0  0  0  0  0  0  0  0  0  0  0  0
  1 31  1  0  0  0  0
  2 26  1  0  0  0  0
  3 20  1  0  0  0  0
  3 28  1  0  0  0  0
  4 15  2  0  0  0  0
  5  7  1  0  0  0  0
  5 11  1  0  0  0  0
  5 15  1  0  0  0  0
  6  8  1  0  0  0  0
  6 13  1  0  0  0  0
  6 38  1  0  0  0  0
  7  8  1  0  0  0  0
  7 14  1  0  0  0  0
  7 33  1  0  0  0  0
  8  9  2  0  0  0  0
  9 10  1  0  0  0  0
  9 12  1  0  0  0  0
 10 11  1  0  0  0  0
 10 34  1  0  0  0  0
 10 35  1  0  0  0  0
 11 36  1  0  0  0  0
 11 37  1  0  0  0  0
 12 13  1  0  0  0  0
 12 16  2  0  0  0  0
 13 17  2  0  0  0  0
 14 18  2  0  0  0  0
 14 19  1  0  0  0  0
 15 20  1  0  0  0  0
 16 21  1  0  0  0  0
 16 39  1  0  0  0  0
 17 22  1  0  0  0  0
 17 40  1  0  0  0  0
 18 23  1  0  0  0  0
 18 41  1  0  0  0  0
 19 24  2  0  0  0  0
 19 42  1  0  0  0  0
 20 25  2  0  0  0  0
 21 22  2  0  0  0  0
 21 43  1  0  0  0  0
 22 44  1  0  0  0  0
 23 26  2  0  0  0  0
 23 45  1  0  0  0  0
 24 26  1  0  0  0  0
 24 46  1  0  0  0  0
 25 27  1  0  0  0  0
 25 47  1  0  0  0  0
 27 28  2  0  0  0  0
 27 29  1  0  0  0  0
 28 30  1  0  0  0  0
 29 31  2  0  0  0  0
 29 48  1  0  0  0  0
 30 32  2  0  0  0  0
 30 49  1  0  0  0  0
 31 32  1  0  0  0  0
 32 50  1  0  0  0  0
M  END
> <PUBCHEM_COMPOUND_CID>
1252391

> <PUBCHEM_CONFORMER_RMSD>
0.8

> <PUBCHEM_CONFORMER_DIVERSEORDER>
1
12
2
10
11
14
9
15
7
6
4
3
13
5
8

> <PUBCHEM_MMFF94_PARTIAL_CHARGES>
43
1 -0.11
10 0.18
11 0.3
13 -0.15
14 -0.14
15 0.71
16 -0.15
17 -0.15
18 -0.15
19 -0.15
2 -0.18
20 0.05
21 -0.15
22 -0.15
23 -0.15
24 -0.15
25 -0.15
26 0.18
28 0.14
29 -0.15
3 -0.28
30 -0.15
31 0.11
32 -0.15
38 0.27
39 0.15
4 -0.57
40 0.15
41 0.15
42 0.15
43 0.15
44 0.15
45 0.15
46 0.15
47 0.15
48 0.15
49 0.15
5 -0.66
50 0.15
6 0.03
7 0.62
8 -0.33
9 -0.18

> <PUBCHEM_EFFECTIVE_ROTOR_COUNT>
3.8

> <PUBCHEM_PHARMACOPHORE_FEATURES>
11
1 1 hydrophobe
1 3 acceptor
1 4 acceptor
1 6 cation
1 6 donor
5 3 20 25 27 28 rings
5 6 8 9 12 13 rings
6 12 13 16 17 21 22 rings
6 14 18 19 23 24 26 rings
6 27 28 29 30 31 32 rings
6 5 7 8 9 10 11 rings

> <PUBCHEM_HEAVY_ATOM_COUNT>
32

> <PUBCHEM_ATOM_DEF_STEREO_COUNT>
1

> <PUBCHEM_ATOM_UDEF_STEREO_COUNT>
0

> <PUBCHEM_BOND_DEF_STEREO_COUNT>
0

> <PUBCHEM_BOND_UDEF_STEREO_COUNT>
0

> <PUBCHEM_ISOTOPIC_ATOM_COUNT>
0

> <PUBCHEM_COMPONENT_COUNT>
1

> <PUBCHEM_CACTVS_TAUTO_COUNT>
1

> <PUBCHEM_CONFORMER_ID>
00131C2700000001

> <PUBCHEM_MMFF94_ENERGY>
76.3888

> <PUBCHEM_FEATURE_SELFOVERLAP>
56.105

> <PUBCHEM_SHAPE_FINGERPRINT>
102385 1 17833270101067925762
10670039 82 16298376934564361823
10673678 19 17315651840029216748
10688039 33 18339082588705805166
10815517 723 18124324809201356041
10930396 42 18193248924586607466
11007060 377 8069153624134602118
11115154 58 18335704897549416217
11135926 11 18046933703432137748
11181472 205 11315120870510710967
11297750 10 18270667668454595760
11331351 85 17916039970448736161
11386260 185 18263910181670035741
11497681 19 17774449270472701726
11578080 2 16227475055963973358
11720765 8 18410012181992273804
11991303 11 17543082177654067548
12107698 1 18408880742431206661
12166972 35 18202561800220208267
12236239 1 17346881134915799987
12516196 113 18410292493259122158
12758862 11 16805613577143932318
12788726 201 18042402431387650978
13540713 4 17534070937151287507
13782708 43 17914906327576065414
13911987 19 18189355557743778806
14068700 675 17989488506777408753
14170010 4 18340481270111431729
14508225 48 18337114475698340856
14556957 393 18044123201539999780
15021287 119 18340503188073374777
15183329 4 17894909594767338883
15198563 99 18264493884499450916
15320294 125 16845565423150681247
15419008 47 17967810540351959645
15439362 3 18194678404601793305
15775530 1 17539148537319259930
15975801 100 16662883619121897189
15979999 66 18408604781317389349
16988056 13 18261385706550652589
17357779 13 18339358566003135472
1813 80 18130804325379856166
18222031 100 18413107247547984666
20028762 73 16988842748558702862
21365058 113 18408325488463425549
21583282 1 18199190762511201124
21641784 216 18265636311682820588
21792961 116 17822015263933352186
221357 26 18260823809179962893
23536364 44 18115864114142543141
23559900 14 18335699503070213459
23576562 1 18265334091565716455
24771293 8 18343585166300005008
24771750 20 17684383028422335924
249057 3 18411414042886456951
27425 322 11314322641029905490
283562 15 18192154802694485090
3103668 31 18117838798730636605
3380486 145 17982193144291019536
340366 18 18341608278136128839
376196 1 17393882186175727025
4015057 19 18338802325015750771
4017518 198 17909835672186152588
4066623 53 17967808349280880956
4353968 344 18122346779884077382
437795 70 18264756676463356173
437815 12 18408040697829653061
4403749 210 10231167339854790783
4408954 87 17123696570016328033
44802255 64 16598475718320658348
46194498 28 18261947557297602013
508180 173 18186796947041699313
513202 73 18055076463034886238
57035037 87 16153712072653140196
57527295 17 18041837282295247907
57527452 28 17131835369516511046
59521099 67 18201994474191777473
5969126 39 18339644413493871990
6004065 56 18411135874622925698
613672 6 18335991900059379538
6698420 124 8070018979036473446
6823239 73 16877938391003925229
70251023 43 18340768127283856314
9962374 69 18270391824080133727
9981440 41 13556876820651727262

> <PUBCHEM_SHAPE_MULTIPOLES>
644.66
16.31
5.27
1.64
19.58
11.79
-0.43
-19.21
6.22
-6.45
2.31
1.14
0.19
0.79

> <PUBCHEM_SHAPE_SELFOVERLAP>
1434.938

> <PUBCHEM_SHAPE_VOLUME>
353.1

> <PUBCHEM_COORDINATE_TYPE>
2
5
10

$$$$
46955235
  -OEChem-08182309503D

 56 60  0     1  0  0  0  0  0999 V2000
   -7.4459   -1.1304   -1.8648 F   0  0  0  0  0  0  0  0  0  0  0  0
   -8.1705   -1.8943    0.6586 F   0  0  0  0  0  0  0  0  0  0  0  0
    2.2416    0.3718   -0.6631 O   0  0  0  0  0  0  0  0  0  0  0  0
    5.2571    3.1445   -0.2579 O   0  0  0  0  0  0  0  0  0  0  0  0
   -3.6867    2.4394    0.5245 O   0  0  0  0  0  0  0  0  0  0  0  0
   -1.0653    1.2804    0.2115 N   0  0  0  0  0  0  0  0  0  0  0  0
    1.7970    1.7168   -0.4058 C   0  0  0  0  0  0  0  0  0  0  0  0
    0.6593    1.9968   -1.4104 C   0  0  0  0  0  0  0  0  0  0  0  0
    1.2140    1.8109    1.0204 C   0  0  0  0  0  0  0  0  0  0  0  0
    2.9367    2.7108   -0.6562 C   0  0  0  0  0  0  0  0  0  0  0  0
   -0.5691    1.1153   -1.1596 C   0  0  0  0  0  0  0  0  0  0  0  0
   -0.0315    0.9339    1.1937 C   0  0  0  0  0  0  0  0  0  0  0  0
    4.1375    2.4117    0.2322 C   0  0  1  0  0  0  0  0  0  0  0  0
    4.4338    0.9355    0.2407 C   0  0  0  0  0  0  0  0  0  0  0  0
    3.4792    0.0017   -0.1930 C   0  0  0  0  0  0  0  0  0  0  0  0
   -2.2651    0.4711    0.4230 C   0  0  0  0  0  0  0  0  0  0  0  0
   -3.5071    1.1827   -0.1274 C   0  0  1  0  0  0  0  0  0  0  0  0
    3.7576   -1.3890   -0.1842 C   0  0  0  0  0  0  0  0  0  0  0  0
    5.6589    0.4703    0.7316 C   0  0  0  0  0  0  0  0  0  0  0  0
    5.0121   -1.8316    0.2989 C   0  0  0  0  0  0  0  0  0  0  0  0
    5.9463   -0.8937    0.7560 C   0  0  0  0  0  0  0  0  0  0  0  0
   -4.7576    0.3577    0.0836 C   0  0  0  0  0  0  0  0  0  0  0  0
    2.8362   -2.3628   -0.6296 C   0  0  0  0  0  0  0  0  0  0  0  0
    5.3088   -3.2047    0.3213 C   0  0  0  0  0  0  0  0  0  0  0  0
    3.1460   -3.7236   -0.6012 C   0  0  0  0  0  0  0  0  0  0  0  0
   -5.5409   -0.0131   -1.0093 C   0  0  0  0  0  0  0  0  0  0  0  0
   -5.1271   -0.0324    1.3708 C   0  0  0  0  0  0  0  0  0  0  0  0
    4.3817   -4.1440   -0.1264 C   0  0  0  0  0  0  0  0  0  0  0  0
   -6.6936   -0.7741   -0.8152 C   0  0  0  0  0  0  0  0  0  0  0  0
   -6.2800   -0.7932    1.5650 C   0  0  0  0  0  0  0  0  0  0  0  0
   -7.0632   -1.1642    0.4720 C   0  0  0  0  0  0  0  0  0  0  0  0
    0.3611    3.0522   -1.3564 H   0  0  0  0  0  0  0  0  0  0  0  0
    1.0096    1.8091   -2.4334 H   0  0  0  0  0  0  0  0  0  0  0  0
    1.9481    1.4912    1.7687 H   0  0  0  0  0  0  0  0  0  0  0  0
    0.9564    2.8538    1.2474 H   0  0  0  0  0  0  0  0  0  0  0  0
    3.2529    2.6495   -1.7078 H   0  0  0  0  0  0  0  0  0  0  0  0
    2.6091    3.7466   -0.5017 H   0  0  0  0  0  0  0  0  0  0  0  0
   -1.3327    1.4092   -1.8877 H   0  0  0  0  0  0  0  0  0  0  0  0
   -0.3195    0.0658   -1.3645 H   0  0  0  0  0  0  0  0  0  0  0  0
    0.2424   -0.1267    1.1185 H   0  0  0  0  0  0  0  0  0  0  0  0
   -0.4121    1.0985    2.2095 H   0  0  0  0  0  0  0  0  0  0  0  0
    3.9459    2.7366    1.2616 H   0  0  0  0  0  0  0  0  0  0  0  0
   -2.4012    0.3387    1.5040 H   0  0  0  0  0  0  0  0  0  0  0  0
   -2.1586   -0.5360   -0.0018 H   0  0  0  0  0  0  0  0  0  0  0  0
   -3.3952    1.3910   -1.1969 H   0  0  0  0  0  0  0  0  0  0  0  0
    6.4061    1.1692    1.1002 H   0  0  0  0  0  0  0  0  0  0  0  0
    5.0238    4.0882   -0.2307 H   0  0  0  0  0  0  0  0  0  0  0  0
    6.9128   -1.2156    1.1386 H   0  0  0  0  0  0  0  0  0  0  0  0
    1.8579   -2.0713   -1.0068 H   0  0  0  0  0  0  0  0  0  0  0  0
    6.2701   -3.5564    0.6909 H   0  0  0  0  0  0  0  0  0  0  0  0
   -2.8652    2.9465    0.4069 H   0  0  0  0  0  0  0  0  0  0  0  0
    2.4201   -4.4524   -0.9498 H   0  0  0  0  0  0  0  0  0  0  0  0
   -5.2666    0.2825   -2.0183 H   0  0  0  0  0  0  0  0  0  0  0  0
   -4.5414    0.2572    2.2386 H   0  0  0  0  0  0  0  0  0  0  0  0
    4.6252   -5.2020   -0.1028 H   0  0  0  0  0  0  0  0  0  0  0  0
   -6.5701   -1.0942    2.5673 H   0  0  0  0  0  0  0  0  0  0  0  0
  1 29  1  0  0  0  0
  2 31  1  0  0  0  0
  3  7  1  0  0  0  0
  3 15  1  0  0  0  0
  4 13  1  0  0  0  0
  4 47  1  0  0  0  0
  5 17  1  0  0  0  0
  5 51  1  0  0  0  0
  6 11  1  0  0  0  0
  6 12  1  0  0  0  0
  6 16  1  0  0  0  0
  7  8  1  0  0  0  0
  7  9  1  0  0  0  0
  7 10  1  0  0  0  0
  8 11  1  0  0  0  0
  8 32  1  0  0  0  0
  8 33  1  0  0  0  0
  9 12  1  0  0  0  0
  9 34  1  0  0  0  0
  9 35  1  0  0  0  0
 10 13  1  0  0  0  0
 10 36  1  0  0  0  0
 10 37  1  0  0  0  0
 11 38  1  0  0  0  0
 11 39  1  0  0  0  0
 12 40  1  0  0  0  0
 12 41  1  0  0  0  0
 13 14  1  0  0  0  0
 13 42  1  0  0  0  0
 14 15  2  0  0  0  0
 14 19  1  0  0  0  0
 15 18  1  0  0  0  0
 16 17  1  0  0  0  0
 16 43  1  0  0  0  0
 16 44  1  0  0  0  0
 17 22  1  0  0  0  0
 17 45  1  0  0  0  0
 18 20  1  0  0  0  0
 18 23  2  0  0  0  0
 19 21  2  0  0  0  0
 19 46  1  0  0  0  0
 20 21  1  0  0  0  0
 20 24  2  0  0  0  0
 21 48  1  0  0  0  0
 22 26  2  0  0  0  0
 22 27  1  0  0  0  0
 23 25  1  0  0  0  0
 23 49  1  0  0  0  0
 24 28  1  0  0  0  0
 24 50  1  0  0  0  0
 25 28  2  0  0  0  0
 25 52  1  0  0  0  0
 26 29  1  0  0  0  0
 26 53  1  0  0  0  0
 27 30  2  0  0  0  0
 27 54  1  0  0  0  0
 28 55  1  0  0  0  0
 29 31  2  0  0  0  0
 30 31  1  0  0  0  0
 30 56  1  0  0  0  0
M  END
> <PUBCHEM_COMPOUND_CID>
46955235

> <PUBCHEM_CONFORMER_RMSD>
0.8

> <PUBCHEM_CONFORMER_DIVERSEORDER>
2
154
39
127
120
147
129
103
110
61
119
27
9
91
142
158
151
33
125
122
116
141
143
148
149
71
159
46
40
58
155
88
93
106
137
32
81
63
55
153
156
124
136
140
79
14
135
8
95
126
105
134
56
68
100
66
86
57
90
121
145
114
118
42
77
139
85
37
80
17
109
49
11
150
25
73
133
112
47
16
132
131
51
104
52
123
6
18
82
117
98
94
146
59
101
54
43
99
30
115
102
19
76
97
22
67
128
64
89
35
41
72
45
26
69
20
65
62
130
15
44
92
83
78
113
96
28
23
138
84
74
70
53
152
36
87
34
7
111
144
13
5
31
75
21
38
10
1
12
50
108
157
24
29
4
107
3
48
60

> <PUBCHEM_MMFF94_PARTIAL_CHARGES>
37
1 -0.19
11 0.27
12 0.27
13 0.42
14 -0.14
15 0.08
16 0.27
17 0.42
19 -0.15
2 -0.19
21 -0.15
22 -0.14
23 -0.15
24 -0.15
25 -0.15
26 -0.15
27 -0.15
28 -0.15
29 0.19
3 -0.36
30 -0.15
31 0.19
4 -0.68
46 0.15
47 0.4
48 0.15
49 0.15
5 -0.68
50 0.15
51 0.4
52 0.15
53 0.15
54 0.15
55 0.15
56 0.15
6 -0.81
7 0.28

> <PUBCHEM_EFFECTIVE_ROTOR_COUNT>
4.6

> <PUBCHEM_PHARMACOPHORE_FEATURES>
11
1 3 acceptor
1 4 acceptor
1 4 donor
1 5 acceptor
1 5 donor
1 6 cation
6 14 15 18 19 20 21 rings
6 18 20 23 24 25 28 rings
6 22 26 27 29 30 31 rings
6 3 7 10 13 14 15 rings
6 6 7 8 9 11 12 rings

> <PUBCHEM_HEAVY_ATOM_COUNT>
31

> <PUBCHEM_ATOM_DEF_STEREO_COUNT>
0

> <PUBCHEM_ATOM_UDEF_STEREO_COUNT>
2

> <PUBCHEM_BOND_DEF_STEREO_COUNT>
0

> <PUBCHEM_BOND_UDEF_STEREO_COUNT>
0

> <PUBCHEM_ISOTOPIC_ATOM_COUNT>
0

> <PUBCHEM_COMPONENT_COUNT>
1

> <PUBCHEM_CACTVS_TAUTO_COUNT>
1

> <PUBCHEM_CONFORMER_ID>
02CC7AE300000002

> <PUBCHEM_MMFF94_ENERGY>
85.1372

> <PUBCHEM_FEATURE_SELFOVERLAP>
55.877

> <PUBCHEM_SHAPE_FINGERPRINT>
10316853 100 18334862714507888290
10595046 47 18342459244354401305
10951579 204 17023735698937315797
11409948 8 18340193130706962042
117089 54 18053106116807945222
11828532 37 17385733512360249850
11963148 33 18268142240042389663
11991303 11 13045953438633352497
12107183 9 17910402684191738185
12202916 173 18040711464335721090
12596602 18 17132115718979246339
12623949 98 18340213994581412782
13008946 335 17841981480877927056
13073987 5 18343022177259744441
13533116 47 18342458157489824440
1361 2 18410573985658295306
1361 4 18339645641781269571
13782708 43 18186801331485168891
13989917 61 18410578400552931194
14118638 360 18412550924465694465
14211702 104 18335427837661507227
14347332 77 18412265000372064761
15119646 104 18343867714744096379
15183329 4 18413388761163316591
15250474 111 18202278139195048903
15328684 2 17417826010744421435
15352257 5 18335142033637700875
15361156 5 17970366827102853948
15475509 35 18202275909842901568
15483637 11 18049162460145231162
15510800 12 18114473292105367835
16990366 60 18048315553715792122
17492 89 18268150859956771920
1768 124 18411981368625523654
17857418 61 18273213106285969959
18365409 1 17980486981833979004
19301679 30 18411707565225145377
19315092 285 18130791122513309920
19319366 153 18128252479499707316
19377110 9 17703796916196853937
20028762 73 18200309910181373542
2026 5 18186516584398462115
20567600 247 18271802419803601731
21033650 10 16081648851723316429
21197605 99 18411983580940051450
21623969 137 18409166610341997935
22061861 79 18114179748718343669
23522609 53 17915487036913398457
23559900 14 17969501683946876713
23569914 152 17543034942146747215
23569914 2 9849264573197445995
23572383 38 18114189669613159243
24771750 20 17101734237647412253
34797466 226 16878233069000221485
3663271 9 18060424599245155593
4046055 4 17821727196356390477
439807 62 18342175562423116905
4461854 278 17917992755030268454
44880568 143 17022894671516348629
46194498 28 17822006527785035268
4756326 101 14491632022139432142
50009960 94 17898835873686944602
5104073 3 18059298656315183281
5309563 4 18122344584870256974
5718773 13 18043243544983095314
6441014 3 17545598951249502082
9555976 147 17488470659215488705
9658208 31 13254793581347878324

> <PUBCHEM_SHAPE_MULTIPOLES>
600.83
20.41
4
1.22
36.76
2.41
-0.05
12.39
1.79
-7.65
-0.55
1.49
-0.05
0.04

> <PUBCHEM_SHAPE_SELFOVERLAP>
1325.553

> <PUBCHEM_SHAPE_VOLUME>
323.3

> <PUBCHEM_COORDINATE_TYPE>
2
5
10

$$$$
162640918
  -OEChem-08182309503D

 37 39  0     1  0  0  0  0  0999 V2000
   -6.9953   -1.8793    0.9634 Br  0  0  0  0  0  0  0  0  0  0  0  0
   -1.1476   -0.1112   -0.3052 O   0  0  0  0  0  0  0  0  0  0  0  0
   -4.6129    0.6184   -1.0290 O   0  0  0  0  0  0  0  0  0  0  0  0
   -2.2147    1.7720    0.2594 N   0  0  0  0  0  0  0  0  0  0  0  0
   -0.8586    1.9835    0.4246 N   0  0  0  0  0  0  0  0  0  0  0  0
   -5.8572    0.0182   -0.7090 N   0  0  0  0  0  0  0  0  0  0  0  0
    5.3118   -0.5793   -0.0199 C   0  0  0  0  0  0  0  0  0  0  0  0
    3.8229   -0.1961    0.0077 C   0  0  0  0  0  0  0  0  0  0  0  0
    5.5762   -2.0263   -0.4940 C   0  0  0  0  0  0  0  0  0  0  0  0
    6.0724    0.3609   -0.9799 C   0  0  0  0  0  0  0  0  0  0  0  0
    5.9085   -0.4478    1.3980 C   0  0  0  0  0  0  0  0  0  0  0  0
    3.4390    1.0815    0.4145 C   0  0  0  0  0  0  0  0  0  0  0  0
    2.8561   -1.1264   -0.3741 C   0  0  0  0  0  0  0  0  0  0  0  0
   -3.5783   -0.2409   -0.5166 C   0  0  2  0  0  0  0  0  0  0  0  0
    1.1216    0.4990    0.0577 C   0  0  0  0  0  0  0  0  0  0  0  0
    2.0884    1.4292    0.4397 C   0  0  0  0  0  0  0  0  0  0  0  0
    1.5055   -0.7787   -0.3491 C   0  0  0  0  0  0  0  0  0  0  0  0
   -4.2109   -0.9280    0.6748 C   0  0  0  0  0  0  0  0  0  0  0  0
   -2.3365    0.5370   -0.1674 C   0  0  0  0  0  0  0  0  0  0  0  0
   -0.2751    0.8585    0.0835 C   0  0  0  0  0  0  0  0  0  0  0  0
   -5.6154   -0.8442    0.2208 C   0  0  0  0  0  0  0  0  0  0  0  0
    6.6508   -2.2472   -0.4954 H   0  0  0  0  0  0  0  0  0  0  0  0
    5.1029   -2.7640    0.1646 H   0  0  0  0  0  0  0  0  0  0  0  0
    5.2182   -2.1921   -1.5168 H   0  0  0  0  0  0  0  0  0  0  0  0
    6.0325    1.4063   -0.6549 H   0  0  0  0  0  0  0  0  0  0  0  0
    5.6531    0.3147   -1.9920 H   0  0  0  0  0  0  0  0  0  0  0  0
    7.1318    0.0865   -1.0451 H   0  0  0  0  0  0  0  0  0  0  0  0
    5.3704   -1.0816    2.1129 H   0  0  0  0  0  0  0  0  0  0  0  0
    5.8647    0.5807    1.7727 H   0  0  0  0  0  0  0  0  0  0  0  0
    6.9625   -0.7491    1.4129 H   0  0  0  0  0  0  0  0  0  0  0  0
    4.1711    1.8246    0.7169 H   0  0  0  0  0  0  0  0  0  0  0  0
    3.0993   -2.1320   -0.6983 H   0  0  0  0  0  0  0  0  0  0  0  0
   -3.3429   -0.9673   -1.3050 H   0  0  0  0  0  0  0  0  0  0  0  0
    1.8114    2.4306    0.7603 H   0  0  0  0  0  0  0  0  0  0  0  0
    0.7805   -1.5294   -0.6535 H   0  0  0  0  0  0  0  0  0  0  0  0
   -4.1045   -0.3674    1.6090 H   0  0  0  0  0  0  0  0  0  0  0  0
   -3.8653   -1.9546    0.8123 H   0  0  0  0  0  0  0  0  0  0  0  0
  1 21  1  0  0  0  0
  2 19  1  0  0  0  0
  2 20  1  0  0  0  0
  3  6  1  0  0  0  0
  3 14  1  0  0  0  0
  4  5  1  0  0  0  0
  4 19  2  0  0  0  0
  5 20  2  0  0  0  0
  6 21  2  0  0  0  0
  7  8  1  0  0  0  0
  7  9  1  0  0  0  0
  7 10  1  0  0  0  0
  7 11  1  0  0  0  0
  8 12  2  0  0  0  0
  8 13  1  0  0  0  0
  9 22  1  0  0  0  0
  9 23  1  0  0  0  0
  9 24  1  0  0  0  0
 10 25  1  0  0  0  0
 10 26  1  0  0  0  0
 10 27  1  0  0  0  0
 11 28  1  0  0  0  0
 11 29  1  0  0  0  0
 11 30  1  0  0  0  0
 12 16  1  0  0  0  0
 12 31  1  0  0  0  0
 13 17  2  0  0  0  0
 13 32  1  0  0  0  0
 14 18  1  0  0  0  0
 14 19  1  0  0  0  0
 14 33  1  0  0  0  0
 15 16  2  0  0  0  0
 15 17  1  0  0  0  0
 15 20  1  0  0  0  0
 16 34  1  0  0  0  0
 17 35  1  0  0  0  0
 18 21  1  0  0  0  0
 18 36  1  0  0  0  0
 18 37  1  0  0  0  0
M  END
> <PUBCHEM_COMPOUND_CID>
162640918

> <PUBCHEM_CONFORMER_RMSD>
0.6

> <PUBCHEM_CONFORMER_DIVERSEORDER>
1
9
15
10
21
14
12
3
5
16
13
20
11
19
18
6
4
2
17
7
8

> <PUBCHEM_MMFF94_PARTIAL_CHARGES>
22
1 -0.14
12 -0.15
13 -0.15
14 0.46
15 0.05
16 -0.15
17 -0.15
18 0.06
19 0.3
2 -0.28
20 0.43
21 0.53
3 -0.22
31 0.15
32 0.15
34 0.15
35 0.15
4 -0.34
5 -0.34
6 -0.51
7 0.14
8 -0.14

> <PUBCHEM_EFFECTIVE_ROTOR_COUNT>
3.6

> <PUBCHEM_PHARMACOPHORE_FEATURES>
6
1 1 hydrophobe
1 6 acceptor
4 7 9 10 11 hydrophobe
5 2 4 5 19 20 rings
5 3 6 14 18 21 rings
6 8 12 13 15 16 17 rings

> <PUBCHEM_HEAVY_ATOM_COUNT>
21

> <PUBCHEM_ATOM_DEF_STEREO_COUNT>
0

> <PUBCHEM_ATOM_UDEF_STEREO_COUNT>
1

> <PUBCHEM_BOND_DEF_STEREO_COUNT>
0

> <PUBCHEM_BOND_UDEF_STEREO_COUNT>
0

> <PUBCHEM_ISOTOPIC_ATOM_COUNT>
0

> <PUBCHEM_COMPONENT_COUNT>
1

> <PUBCHEM_CACTVS_TAUTO_COUNT>
-1

> <PUBCHEM_CONFORMER_ID>
09B1B41600000001

> <PUBCHEM_MMFF94_ENERGY>
50.8474

> <PUBCHEM_FEATURE_SELFOVERLAP>
30.447

> <PUBCHEM_SHAPE_FINGERPRINT>
10 15 18270948129855629496
106641 1 15554152770423276966
10803635 8 17749101180486131127
11089746 13 13767931234519765238
11315181 36 18187086147888699392
11524674 6 17703792548505797447
11719270 70 18339071610511654694
11796584 16 17967809440286670899
11963148 33 18411693305538967510
12166972 35 17821733852927321053
12236239 1 17240480299473415786
12516196 113 18131911572217468657
12616971 3 17489303131241027157
12916748 109 18202281390817263120
13073987 5 18130785604276724328
13288520 33 18410575076690524277
13533116 47 18059853987297028592
13668630 136 18260268538053365562
13673619 4 18186804721174558669
13685833 64 18410577310062975219
13740256 8 18409731807190886955
13782708 43 18186515497101205363
13862211 1 18273207599483931326
13885169 127 18408885123688251541
13955234 65 18129092502104140232
1420 363 18342739615339179374
14341114 176 18273215296487292814
14350574 20 18408887347310302901
14848160 23 18335416868003712199
14849402 71 16343128264426154352
15048467 5 9655573019988752338
15183329 4 11458418021011490510
15196674 1 18271806757836511164
15238133 3 13686302408498967283
15537594 2 18131064935289827175
15927050 60 17480578682536914444
17492 89 18054510206215193982
17844677 252 18259706709545507101
17857418 61 18272646840090444390
18006028 8 18131066035487022701
18222031 100 18040437664301861988
19141452 34 17418087758524689479
19489759 90 17530679888440216437
19784866 240 18334300872713622789
200 152 18201998815701417593
20281389 69 10303810977626847014
20374829 77 18334572438973817745
20645477 56 9439400229174244697
20767249 213 9007055768805948157
21033650 10 15937818384985931116
21049683 271 18337398256941160004
21150785 3 16950568804571339222
21236236 1 18201157651184603161
21267235 1 18343589533848942158
21623969 137 18272094906929006695
21682296 61 17773323344358075454
21792934 111 18202557381152899057
22224240 67 16630522947268870711
2297311 6 17988932145573156188
23035841 295 18114180835186853035
23081809 10 14851873751945562493
23198884 109 15646771180825115241
23402539 116 15574712478369146647
23522609 53 18056228884132997768
23536379 177 16660640734931628588
23559900 14 18334853960873746697
23590187 135 18333731334127271619
23590187 90 11746937598643783598
23845131 108 16767350353127696121
26918003 58 18409445890922528153
2767999 5 11386367053860226110
2871803 45 18408601431442766762
2916195 48 9871745789117290575
29717793 49 14923942311219464234
3004659 81 18114179748074921180
3009799 131 14706928449749155662
314173 85 17775571931393563997
34797466 226 17312831485039176902
351380 3 18272646844243071447
3759504 43 10303804397906163933
4325135 7 18411140238741858124
465052 167 18343867714696688686
5104073 3 17916020166702284714
5283173 99 18188200997367319005
542803 24 14490473066886709821
57483677 66 18410569574346840150
59755656 215 18334575715876252154
59755656 520 17167857586714233835
636775 8 18338529581702596310
7495541 125 18408039628536004192
8863177 126 18191029100330004859
999808 66 17968387840176667307

> <PUBCHEM_SHAPE_MULTIPOLES>
411.43
18.14
1.74
0.96
10.08
0.07
0.1
9.59
1.01
0.25
0.21
-0.23
0.1
1.07

> <PUBCHEM_SHAPE_SELFOVERLAP>
869.332

> <PUBCHEM_SHAPE_VOLUME>
238.4

> <PUBCHEM_COORDINATE_TYPE>
2
5
10

$$$$
1077666
  -OEChem-08182309503D

 47 49  0     0  0  0  0  0  0999 V2000
    0.3748   -4.6980   -1.1090 Cl  0  0  0  0  0  0  0  0  0  0  0  0
    3.4656    0.4253    0.7195 S   0  0  0  0  0  0  0  0  0  0  0  0
    3.7313    0.3012    2.1362 O   0  0  0  0  0  0  0  0  0  0  0  0
    4.5369    0.6614   -0.2236 O   0  0  0  0  0  0  0  0  0  0  0  0
   -0.9576    1.8146   -1.9087 O   0  0  0  0  0  0  0  0  0  0  0  0
    2.2467    1.6069    0.4819 N   0  0  0  0  0  0  0  0  0  0  0  0
   -2.3660    2.3836   -0.1446 N   0  0  0  0  0  0  0  0  0  0  0  0
   -0.1132    3.2003   -0.1556 C   0  0  0  0  0  0  0  0  0  0  0  0
    0.1620    2.6788    1.2560 C   0  0  0  0  0  0  0  0  0  0  0  0
    1.1587    3.2447   -1.0044 C   0  0  0  0  0  0  0  0  0  0  0  0
    0.9988    1.4014    1.2711 C   0  0  0  0  0  0  0  0  0  0  0  0
    1.9559    1.9445   -0.9406 C   0  0  0  0  0  0  0  0  0  0  0  0
   -1.1698    2.3840   -0.8412 C   0  0  0  0  0  0  0  0  0  0  0  0
    2.5950   -1.0211    0.2039 C   0  0  0  0  0  0  0  0  0  0  0  0
   -3.5481    1.6909   -0.6041 C   0  0  0  0  0  0  0  0  0  0  0  0
    2.6469   -1.4059   -1.1258 C   0  0  0  0  0  0  0  0  0  0  0  0
    1.8731   -1.7468    1.1373 C   0  0  0  0  0  0  0  0  0  0  0  0
   -3.6064    0.2800   -0.0942 C   0  0  0  0  0  0  0  0  0  0  0  0
    1.9576   -2.5480   -1.5335 C   0  0  0  0  0  0  0  0  0  0  0  0
    1.1839   -2.8890    0.7298 C   0  0  0  0  0  0  0  0  0  0  0  0
    1.2261   -3.2897   -0.6057 C   0  0  0  0  0  0  0  0  0  0  0  0
   -3.0313   -0.7441   -0.8377 C   0  0  0  0  0  0  0  0  0  0  0  0
   -4.2344    0.0117    1.1165 C   0  0  0  0  0  0  0  0  0  0  0  0
   -3.0851   -2.0549   -0.3640 C   0  0  0  0  0  0  0  0  0  0  0  0
   -4.2881   -1.2992    1.5903 C   0  0  0  0  0  0  0  0  0  0  0  0
   -3.7134   -2.3325    0.8499 C   0  0  0  0  0  0  0  0  0  0  0  0
   -0.5103    4.2219   -0.0820 H   0  0  0  0  0  0  0  0  0  0  0  0
   -0.7517    2.5119    1.8351 H   0  0  0  0  0  0  0  0  0  0  0  0
    0.7211    3.4558    1.7955 H   0  0  0  0  0  0  0  0  0  0  0  0
    1.7932    4.0578   -0.6264 H   0  0  0  0  0  0  0  0  0  0  0  0
    0.9336    3.4905   -2.0491 H   0  0  0  0  0  0  0  0  0  0  0  0
    1.2435    1.1602    2.3106 H   0  0  0  0  0  0  0  0  0  0  0  0
    0.4052    0.5840    0.8494 H   0  0  0  0  0  0  0  0  0  0  0  0
    1.4090    1.1291   -1.4215 H   0  0  0  0  0  0  0  0  0  0  0  0
    2.8903    2.0970   -1.4903 H   0  0  0  0  0  0  0  0  0  0  0  0
   -2.4541    2.9293    0.7069 H   0  0  0  0  0  0  0  0  0  0  0  0
   -3.5731    1.7025   -1.7004 H   0  0  0  0  0  0  0  0  0  0  0  0
   -4.4190    2.2613   -0.2616 H   0  0  0  0  0  0  0  0  0  0  0  0
    3.2071   -0.8409   -1.8644 H   0  0  0  0  0  0  0  0  0  0  0  0
    1.8251   -1.4520    2.1810 H   0  0  0  0  0  0  0  0  0  0  0  0
    1.9982   -2.8475   -2.5776 H   0  0  0  0  0  0  0  0  0  0  0  0
    0.6166   -3.4562    1.4633 H   0  0  0  0  0  0  0  0  0  0  0  0
   -2.5403   -0.5420   -1.7854 H   0  0  0  0  0  0  0  0  0  0  0  0
   -4.6832    0.8090    1.7023 H   0  0  0  0  0  0  0  0  0  0  0  0
   -2.6375   -2.8593   -0.9403 H   0  0  0  0  0  0  0  0  0  0  0  0
   -4.7765   -1.5154    2.5359 H   0  0  0  0  0  0  0  0  0  0  0  0
   -3.7545   -3.3531    1.2191 H   0  0  0  0  0  0  0  0  0  0  0  0
  1 21  1  0  0  0  0
  2  3  2  0  0  0  0
  2  4  2  0  0  0  0
  2  6  1  0  0  0  0
  2 14  1  0  0  0  0
  5 13  2  0  0  0  0
  6 11  1  0  0  0  0
  6 12  1  0  0  0  0
  7 13  1  0  0  0  0
  7 15  1  0  0  0  0
  7 36  1  0  0  0  0
  8  9  1  0  0  0  0
  8 10  1  0  0  0  0
  8 13  1  0  0  0  0
  8 27  1  0  0  0  0
  9 11  1  0  0  0  0
  9 28  1  0  0  0  0
  9 29  1  0  0  0  0
 10 12  1  0  0  0  0
 10 30  1  0  0  0  0
 10 31  1  0  0  0  0
 11 32  1  0  0  0  0
 11 33  1  0  0  0  0
 12 34  1  0  0  0  0
 12 35  1  0  0  0  0
 14 16  2  0  0  0  0
 14 17  1  0  0  0  0
 15 18  1  0  0  0  0
 15 37  1  0  0  0  0
 15 38  1  0  0  0  0
 16 19  1  0  0  0  0
 16 39  1  0  0  0  0
 17 20  2  0  0  0  0
 17 40  1  0  0  0  0
 18 22  2  0  0  0  0
 18 23  1  0  0  0  0
 19 21  2  0  0  0  0
 19 41  1  0  0  0  0
 20 21  1  0  0  0  0
 20 42  1  0  0  0  0
 22 24  1  0  0  0  0
 22 43  1  0  0  0  0
 23 25  2  0  0  0  0
 23 44  1  0  0  0  0
 24 26  2  0  0  0  0
 24 45  1  0  0  0  0
 25 26  1  0  0  0  0
 25 46  1  0  0  0  0
 26 47  1  0  0  0  0
M  END
> <PUBCHEM_COMPOUND_CID>
1077666

> <PUBCHEM_CONFORMER_RMSD>
0.8

> <PUBCHEM_CONFORMER_DIVERSEORDER>
1
181
182
178
140
203
220
226
85
87
191
139
20
133
72
117
213
107
187
170
13
70
97
204
66
160
142
69
248
124
91
171
246
227
92
255
105
148
63
109
127
64
167
99
252
93
197
180
126
185
259
17
90
79
235
3
80
153
154
174
23
37
135
89
245
234
193
119
125
12
186
254
108
45
136
173
263
38
96
150
168
224
260
113
243
163
238
217
43
53
62
81
156
44
216
198
102
112
219
253
2
230
177
65
250
179
77
218
25
161
147
111
155
54
183
231
6
262
103
130
190
94
24
225
115
57
192
50
195
149
5
228
42
233
122
55
207
104
264
49
247
152
210
118
35
201
221
188
261
257
59
27
132
68
7
206
157
28
189
129
165
212
208
100
52
101
144
34
223
84
41
76
169
237
199
128
141
10
202
29
47
175
114
158
9
258
232
15
123
137
67
95
145
32
236
4
61
86
71
106
244
16
209
30
56
8
82
60
184
48
26
22
143
166
120
121
215
78
249
14
83
162
200
19
36
229
31
241
39
138
164
18
194
88
256
211
196
116
240
239
75
58
251
11
176
40
222
214
21
74
151
73
146
205
242
172
131
46
98
33
110
51
134
159

> <PUBCHEM_MMFF94_PARTIAL_CHARGES>
34
1 -0.18
11 0.36
12 0.36
13 0.57
14 -0.01
15 0.44
16 -0.15
17 -0.15
18 -0.14
19 -0.15
2 1.45
20 -0.15
21 0.18
22 -0.15
23 -0.15
24 -0.15
25 -0.15
26 -0.15
3 -0.65
36 0.37
39 0.15
4 -0.65
40 0.15
41 0.15
42 0.15
43 0.15
44 0.15
45 0.15
46 0.15
47 0.15
5 -0.57
6 -0.85
7 -0.73
8 0.06

> <PUBCHEM_EFFECTIVE_ROTOR_COUNT>
7.2

> <PUBCHEM_PHARMACOPHORE_FEATURES>
7
1 3 acceptor
1 4 acceptor
1 5 acceptor
1 7 donor
6 14 16 17 19 20 21 rings
6 18 22 23 24 25 26 rings
6 6 8 9 10 11 12 rings

> <PUBCHEM_HEAVY_ATOM_COUNT>
26

> <PUBCHEM_ATOM_DEF_STEREO_COUNT>
0

> <PUBCHEM_ATOM_UDEF_STEREO_COUNT>
0

> <PUBCHEM_BOND_DEF_STEREO_COUNT>
0

> <PUBCHEM_BOND_UDEF_STEREO_COUNT>
0

> <PUBCHEM_ISOTOPIC_ATOM_COUNT>
0

> <PUBCHEM_COMPONENT_COUNT>
1

> <PUBCHEM_CACTVS_TAUTO_COUNT>
2

> <PUBCHEM_CONFORMER_ID>
001071A200000001

> <PUBCHEM_MMFF94_ENERGY>
44.1924

> <PUBCHEM_FEATURE_SELFOVERLAP>
35.54

> <PUBCHEM_SHAPE_FINGERPRINT>
10064457 181 17984423206931879488
10616163 171 18408038520170678209
10675989 125 17182751308946616133
12156800 1 13413310374629250751
12422481 6 18198880588441731810
12506688 2 18411699889538514177
12553582 1 18408604738694263293
12596602 18 16128076958355534585
12712778 12 16821075703574776938
13122387 1 16968575188666929239
13402501 40 18408606980662092619
15635459 17 18340480054741129823
17093844 170 18265886960977503832
17974551 9 17055828136211178505
19026451 147 8573611689789153913
19734167 9 17628339778007988306
19930381 70 18196081154522656071
20737093 15 17410738739951694135
20764821 26 18337943485637406679
20775530 9 18048888394144634111
23536364 44 17265282889800998782
238 59 18193819664903924943
238918 7 18272355465657657002
3052486 1 18260832575223992710
3737641 26 18128272115862837638
4403749 210 18122030274768822944
463206 1 17910097342603814559
5309563 4 18191590968067477979
6287921 2 18198920277865495055
6433294 58 18123190095530296590

> <PUBCHEM_SHAPE_MULTIPOLES>
513.22
7.57
5.38
1.62
4.65
2.54
0.2
1.35
2.17
-0.92
-1.73
-0.31
0.04
1.17

> <PUBCHEM_SHAPE_SELFOVERLAP>
1067.828

> <PUBCHEM_SHAPE_VOLUME>
292.2

> <PUBCHEM_COORDINATE_TYPE>
2
5
10

$$$$
163196307
  -OEChem-08182309503D

 55 57  0     1  0  0  0  0  0999 V2000
    3.6696    3.4418   -0.2258 F   0  0  0  0  0  0  0  0  0  0  0  0
    1.5967    3.8252   -0.7576 F   0  0  0  0  0  0  0  0  0  0  0  0
    2.1063    3.2690    1.2759 F   0  0  0  0  0  0  0  0  0  0  0  0
    5.3028   -2.1591    2.3445 F   0  0  0  0  0  0  0  0  0  0  0  0
    4.0025   -0.4736    2.7863 F   0  0  0  0  0  0  0  0  0  0  0  0
    5.5796   -0.2775    1.3019 F   0  0  0  0  0  0  0  0  0  0  0  0
    0.6768    0.0014   -3.9708 O   0  0  0  0  0  0  0  0  0  0  0  0
   -2.1042    1.3243    0.8229 O   0  0  0  0  0  0  0  0  0  0  0  0
   -1.6553   -0.6476   -1.1412 N   0  0  0  0  0  0  0  0  0  0  0  0
    3.0046    0.6741    0.3088 N   0  0  0  0  0  0  0  0  0  0  0  0
   -3.0036   -0.1862   -0.8481 C   0  0  1  0  0  0  0  0  0  0  0  0
    0.2511   -0.5607   -2.7240 C   0  0  2  0  0  0  0  0  0  0  0  0
   -1.1796   -0.0896   -2.4050 C   0  0  0  0  0  0  0  0  0  0  0  0
   -3.6333   -1.1537    0.1761 C   0  0  0  0  0  0  0  0  0  0  0  0
    1.2237   -0.1641   -1.6579 C   0  0  0  0  0  0  0  0  0  0  0  0
   -2.9161    1.2588   -0.3421 C   0  0  0  0  0  0  0  0  0  0  0  0
    1.9998   -1.1054   -0.9683 C   0  0  0  0  0  0  0  0  0  0  0  0
   -5.0601   -0.8328    0.5499 C   0  0  0  0  0  0  0  0  0  0  0  0
    2.8896   -0.6361    0.0207 C   0  0  0  0  0  0  0  0  0  0  0  0
    1.3402    1.1866   -1.3632 C   0  0  0  0  0  0  0  0  0  0  0  0
    2.2376    1.5500   -0.3799 C   0  0  0  0  0  0  0  0  0  0  0  0
    3.6604   -1.5714    0.7053 C   0  0  0  0  0  0  0  0  0  0  0  0
    1.9055   -2.4802   -1.2432 C   0  0  0  0  0  0  0  0  0  0  0  0
   -5.3247    0.0145    1.6258 C   0  0  0  0  0  0  0  0  0  0  0  0
   -6.1136   -1.3835   -0.1797 C   0  0  0  0  0  0  0  0  0  0  0  0
    3.5668   -2.9383    0.4323 C   0  0  0  0  0  0  0  0  0  0  0  0
    2.6885   -3.3936   -0.5431 C   0  0  0  0  0  0  0  0  0  0  0  0
    2.3964    2.9919   -0.0295 C   0  0  0  0  0  0  0  0  0  0  0  0
    4.6216   -1.1300    1.7653 C   0  0  0  0  0  0  0  0  0  0  0  0
   -6.6430    0.3111    1.9722 C   0  0  0  0  0  0  0  0  0  0  0  0
   -7.4318   -1.0868    0.1666 C   0  0  0  0  0  0  0  0  0  0  0  0
   -1.9581    2.6611    1.2824 C   0  0  0  0  0  0  0  0  0  0  0  0
   -7.6966   -0.2396    1.2425 C   0  0  0  0  0  0  0  0  0  0  0  0
   -3.6277   -0.2089   -1.7517 H   0  0  0  0  0  0  0  0  0  0  0  0
    0.1954   -1.6320   -2.9073 H   0  0  0  0  0  0  0  0  0  0  0  0
   -1.8337   -0.4139   -3.2261 H   0  0  0  0  0  0  0  0  0  0  0  0
   -1.2148    1.0038   -2.4261 H   0  0  0  0  0  0  0  0  0  0  0  0
   -1.6366   -1.6652   -1.2084 H   0  0  0  0  0  0  0  0  0  0  0  0
   -3.0275   -1.1912    1.0924 H   0  0  0  0  0  0  0  0  0  0  0  0
   -3.6079   -2.1786   -0.2210 H   0  0  0  0  0  0  0  0  0  0  0  0
   -3.9161    1.6414   -0.1095 H   0  0  0  0  0  0  0  0  0  0  0  0
   -2.5115    1.9299   -1.1074 H   0  0  0  0  0  0  0  0  0  0  0  0
    0.7619    1.9352   -1.8931 H   0  0  0  0  0  0  0  0  0  0  0  0
    1.2454   -2.9078   -1.9872 H   0  0  0  0  0  0  0  0  0  0  0  0
    0.0166   -0.2398   -4.6428 H   0  0  0  0  0  0  0  0  0  0  0  0
   -4.5149    0.4460    2.2077 H   0  0  0  0  0  0  0  0  0  0  0  0
   -5.9201   -2.0432   -1.0214 H   0  0  0  0  0  0  0  0  0  0  0  0
    4.1709   -3.6637    0.9700 H   0  0  0  0  0  0  0  0  0  0  0  0
    2.6136   -4.4554   -0.7575 H   0  0  0  0  0  0  0  0  0  0  0  0
   -6.8491    0.9698    2.8107 H   0  0  0  0  0  0  0  0  0  0  0  0
   -8.2522   -1.5151   -0.4018 H   0  0  0  0  0  0  0  0  0  0  0  0
   -1.3389    2.6488    2.1833 H   0  0  0  0  0  0  0  0  0  0  0  0
   -1.4586    3.2740    0.5257 H   0  0  0  0  0  0  0  0  0  0  0  0
   -2.9330    3.0898    1.5340 H   0  0  0  0  0  0  0  0  0  0  0  0
   -8.7230   -0.0087    1.5123 H   0  0  0  0  0  0  0  0  0  0  0  0
  1 28  1  0  0  0  0
  2 28  1  0  0  0  0
  3 28  1  0  0  0  0
  4 29  1  0  0  0  0
  5 29  1  0  0  0  0
  6 29  1  0  0  0  0
  7 12  1  0  0  0  0
  7 45  1  0  0  0  0
  8 16  1  0  0  0  0
  8 32  1  0  0  0  0
  9 11  1  0  0  0  0
  9 13  1  0  0  0  0
  9 38  1  0  0  0  0
 10 19  1  0  0  0  0
 10 21  2  0  0  0  0
 11 14  1  0  0  0  0
 11 16  1  0  0  0  0
 11 34  1  0  0  0  0
 12 13  1  0  0  0  0
 12 15  1  0  0  0  0
 12 35  1  0  0  0  0
 13 36  1  0  0  0  0
 13 37  1  0  0  0  0
 14 18  1  0  0  0  0
 14 39  1  0  0  0  0
 14 40  1  0  0  0  0
 15 17  1  0  0  0  0
 15 20  2  0  0  0  0
 16 41  1  0  0  0  0
 16 42  1  0  0  0  0
 17 19  2  0  0  0  0
 17 23  1  0  0  0  0
 18 24  2  0  0  0  0
 18 25  1  0  0  0  0
 19 22  1  0  0  0  0
 20 21  1  0  0  0  0
 20 43  1  0  0  0  0
 21 28  1  0  0  0  0
 22 26  2  0  0  0  0
 22 29  1  0  0  0  0
 23 27  2  0  0  0  0
 23 44  1  0  0  0  0
 24 30  1  0  0  0  0
 24 46  1  0  0  0  0
 25 31  2  0  0  0  0
 25 47  1  0  0  0  0
 26 27  1  0  0  0  0
 26 48  1  0  0  0  0
 27 49  1  0  0  0  0
 30 33  2  0  0  0  0
 30 50  1  0  0  0  0
 31 33  1  0  0  0  0
 31 51  1  0  0  0  0
 32 52  1  0  0  0  0
 32 53  1  0  0  0  0
 32 54  1  0  0  0  0
 33 55  1  0  0  0  0
M  END
> <PUBCHEM_COMPOUND_CID>
163196307

> <PUBCHEM_CONFORMER_RMSD>
1

> <PUBCHEM_CONFORMER_DIVERSEORDER>
1
45
72
46
6
53
57
77
50
49
84
40
37
85
63
22
43
30
65
27
42
83
13
33
16
48
32
21
76
44
66
18
36
23
20
74
38
54
67
68
69
79
39
70
24
64
58
2
5
62
41
51
61
14
35
81
11
8
60
80
17
78
34
3
56
75
7
47
71
26
29
28
59
12
73
82
9
87
86
31
52
4
25
10
19
15
55

> <PUBCHEM_MMFF94_PARTIAL_CHARGES>
43
1 -0.34
10 -0.62
11 0.27
12 0.42
13 0.27
14 0.14
15 -0.14
16 0.28
18 -0.14
19 0.31
2 -0.34
20 -0.15
21 0.17
22 -0.14
23 -0.15
24 -0.15
25 -0.15
26 -0.15
27 -0.15
28 1.16
29 1.16
3 -0.34
30 -0.15
31 -0.15
32 0.28
33 -0.15
38 0.36
4 -0.34
43 0.15
44 0.15
45 0.4
46 0.15
47 0.15
48 0.15
49 0.15
5 -0.34
50 0.15
51 0.15
55 0.15
6 -0.34
7 -0.68
8 -0.56
9 -0.9

> <PUBCHEM_EFFECTIVE_ROTOR_COUNT>
10

> <PUBCHEM_PHARMACOPHORE_FEATURES>
9
1 10 acceptor
1 7 acceptor
1 7 donor
1 8 acceptor
1 9 cation
1 9 donor
6 10 15 17 19 20 21 rings
6 17 19 22 23 26 27 rings
6 18 24 25 30 31 33 rings

> <PUBCHEM_HEAVY_ATOM_COUNT>
33

> <PUBCHEM_ATOM_DEF_STEREO_COUNT>
2

> <PUBCHEM_ATOM_UDEF_STEREO_COUNT>
0

> <PUBCHEM_BOND_DEF_STEREO_COUNT>
0

> <PUBCHEM_BOND_UDEF_STEREO_COUNT>
0

> <PUBCHEM_ISOTOPIC_ATOM_COUNT>
0

> <PUBCHEM_COMPONENT_COUNT>
1

> <PUBCHEM_CACTVS_TAUTO_COUNT>
-1

> <PUBCHEM_CONFORMER_ID>
09BA2D9300000001

> <PUBCHEM_MMFF94_ENERGY>
76.9038

> <PUBCHEM_FEATURE_SELFOVERLAP>
45.703

> <PUBCHEM_SHAPE_FINGERPRINT>
10190108 129 18201441321058478426
10674148 151 17845658187948060776
11505856 67 15880704726313515181
11607047 403 14707206669784454484
12107698 1 18130240275877838261
12124843 1 12324248234823516987
12373685 5 18269829969585946663
12422481 6 17917431982513638289
12539765 74 13624680339835296542
12633257 1 18411976996538538719
12655387 17 18192160292053488937
12661589 4 14996860925909280683
12758862 65 17821728321447274674
12892183 10 18057878057068907166
13533116 47 18040998470655003065
13583140 156 18337662045215308613
13673619 4 17604141545931492702
13782708 43 17748819696872104235
14294032 229 16773788230147270181
14341114 328 18201720712521863487
14565420 104 18123752221029916936
14950920 106 18337668719773944499
15183329 4 12035722116504566267
15238133 3 17561084751738326731
15475509 35 17530677706211877570
15950262 2 15193569096700637330
19315092 285 18186798089059232409
19319366 153 18052255386607197180
1979834 28 16988572290393800669
20739085 24 18338780257769162912
21033648 29 15913032240991497690
21304303 94 13045950096483741456
21344244 78 18272645740547506441
21421861 104 18412831304082774153
21792934 111 18270404885449564841
21796203 349 18265025039279036608
21814621 53 17676489458975176489
22223350 30 17387145350020934819
23559900 14 15936701457909347615
3178227 256 18261389010060666312
3380486 145 17982133813860225140
3472631 163 14548728526032023923
392239 28 18411131451017685147
4058900 60 17831316256062703101
4112364 45 17917141822944315297
44802255 64 12316612333654937984
484985 159 16743940595331220778
5104073 3 18264220256849768411
563151 40 17608941129547133916
57307002 182 18201993365709542381
86090 222 17604158034258929571
8988823 20 18410298038573188823
960060 61 10809340070765266855

> <PUBCHEM_SHAPE_MULTIPOLES>
613.78
15.45
3.52
2.56
29.43
2.43
1.07
-6
-11.58
-5.17
-0.29
-1.82
-0.43
-1.44

> <PUBCHEM_SHAPE_SELFOVERLAP>
1320.609

> <PUBCHEM_SHAPE_VOLUME>
340.3

> <PUBCHEM_COORDINATE_TYPE>
2
5
10

$$$$
16399017
  -OEChem-08182309503D

 67 71  0     1  0  0  0  0  0999 V2000
   -4.2080    3.0458   -1.7104 O   0  0  0  0  0  0  0  0  0  0  0  0
    1.7138    0.7449    0.1858 O   0  0  0  0  0  0  0  0  0  0  0  0
    0.2215    2.4558   -1.8640 O   0  0  0  0  0  0  0  0  0  0  0  0
   -2.9098    3.4007    0.1673 O   0  0  0  0  0  0  0  0  0  0  0  0
    6.3108   -0.8965    0.0296 O   0  0  0  0  0  0  0  0  0  0  0  0
    6.9572   -2.5116   -1.4548 O   0  0  0  0  0  0  0  0  0  0  0  0
   -1.2739    1.4146   -0.4080 N   0  0  0  0  0  0  0  0  0  0  0  0
   -3.1209   -0.8339    1.9527 N   0  0  0  0  0  0  0  0  0  0  0  0
   -2.4127    1.5870   -1.3418 C   0  0  1  0  0  0  0  0  0  0  0  0
   -3.3044    0.3406   -1.4862 C   0  0  0  0  0  0  0  0  0  0  0  0
   -3.5155   -0.3267   -0.1757 C   0  0  0  0  0  0  0  0  0  0  0  0
   -2.6901   -0.0811    0.8974 C   0  0  0  0  0  0  0  0  0  0  0  0
   -1.5368    0.8473    0.9401 C   0  0  0  0  0  0  0  0  0  0  0  0
   -4.4908   -1.2752    0.2380 C   0  0  0  0  0  0  0  0  0  0  0  0
   -4.2207   -1.5758    1.5775 C   0  0  0  0  0  0  0  0  0  0  0  0
   -0.0362    1.9753   -0.7575 C   0  0  0  0  0  0  0  0  0  0  0  0
   -3.1828    2.7805   -0.8515 C   0  0  0  0  0  0  0  0  0  0  0  0
   -5.5790   -1.9115   -0.3924 C   0  0  0  0  0  0  0  0  0  0  0  0
   -4.9897   -2.4822    2.3164 C   0  0  0  0  0  0  0  0  0  0  0  0
    1.0300    1.9675    0.3109 C   0  0  0  0  0  0  0  0  0  0  0  0
   -6.3555   -2.8201    0.3357 C   0  0  0  0  0  0  0  0  0  0  0  0
   -6.0637   -3.0994    1.6692 C   0  0  0  0  0  0  0  0  0  0  0  0
    3.9888   -0.1380    0.0335 C   0  0  0  0  0  0  0  0  0  0  0  0
    3.0268    0.7086    0.6003 C   0  0  0  0  0  0  0  0  0  0  0  0
    3.7062   -1.0777   -1.0601 C   0  0  0  0  0  0  0  0  0  0  0  0
    2.3391   -1.2102   -1.6686 C   0  0  0  0  0  0  0  0  0  0  0  0
    1.5057   -2.2644   -0.9478 C   0  0  0  0  0  0  0  0  0  0  0  0
    5.2862   -0.0775    0.5444 C   0  0  0  0  0  0  0  0  0  0  0  0
    3.3656    1.5803    1.6417 C   0  0  0  0  0  0  0  0  0  0  0  0
   -5.0287    4.1650   -1.3612 C   0  0  0  0  0  0  0  0  0  0  0  0
    4.6698    1.6192    2.1318 C   0  0  0  0  0  0  0  0  0  0  0  0
    0.1075   -2.3652   -1.5584 C   0  0  0  0  0  0  0  0  0  0  0  0
    5.6393    0.7868    1.5826 C   0  0  0  0  0  0  0  0  0  0  0  0
    4.7003   -1.8443   -1.5302 C   0  0  0  0  0  0  0  0  0  0  0  0
    6.0738   -1.7922   -1.0015 C   0  0  0  0  0  0  0  0  0  0  0  0
    5.0245    2.5503    3.2410 C   0  0  0  0  0  0  0  0  0  0  0  0
   -0.7480   -3.3868   -0.8259 C   0  0  0  0  0  0  0  0  0  0  0  0
   -2.0250    1.8577   -2.3314 H   0  0  0  0  0  0  0  0  0  0  0  0
   -2.7968   -0.3767   -2.1443 H   0  0  0  0  0  0  0  0  0  0  0  0
   -4.2662    0.5774   -1.9538 H   0  0  0  0  0  0  0  0  0  0  0  0
   -1.7242    1.6746    1.6320 H   0  0  0  0  0  0  0  0  0  0  0  0
   -0.6528    0.3018    1.2840 H   0  0  0  0  0  0  0  0  0  0  0  0
   -2.6999   -0.8478    2.8716 H   0  0  0  0  0  0  0  0  0  0  0  0
   -5.8188   -1.7041   -1.4314 H   0  0  0  0  0  0  0  0  0  0  0  0
   -4.7635   -2.7012    3.3546 H   0  0  0  0  0  0  0  0  0  0  0  0
    1.6771    2.8290    0.0935 H   0  0  0  0  0  0  0  0  0  0  0  0
    0.6044    2.1030    1.3089 H   0  0  0  0  0  0  0  0  0  0  0  0
   -7.1958   -3.3129   -0.1463 H   0  0  0  0  0  0  0  0  0  0  0  0
   -6.6800   -3.8086    2.2158 H   0  0  0  0  0  0  0  0  0  0  0  0
    2.4538   -1.5458   -2.7109 H   0  0  0  0  0  0  0  0  0  0  0  0
    1.8220   -0.2563   -1.7872 H   0  0  0  0  0  0  0  0  0  0  0  0
    1.4163   -2.0151    0.1167 H   0  0  0  0  0  0  0  0  0  0  0  0
    1.9999   -3.2425   -1.0050 H   0  0  0  0  0  0  0  0  0  0  0  0
    2.6361    2.2244    2.1240 H   0  0  0  0  0  0  0  0  0  0  0  0
   -5.5085    3.9946   -0.3927 H   0  0  0  0  0  0  0  0  0  0  0  0
   -4.4309    5.0812   -1.3412 H   0  0  0  0  0  0  0  0  0  0  0  0
   -5.8049    4.2685   -2.1241 H   0  0  0  0  0  0  0  0  0  0  0  0
   -0.3878   -1.3887   -1.5169 H   0  0  0  0  0  0  0  0  0  0  0  0
    0.1808   -2.6473   -2.6151 H   0  0  0  0  0  0  0  0  0  0  0  0
    6.6615    0.8042    1.9506 H   0  0  0  0  0  0  0  0  0  0  0  0
    4.5303   -2.5535   -2.3350 H   0  0  0  0  0  0  0  0  0  0  0  0
    5.0949    3.5754    2.8636 H   0  0  0  0  0  0  0  0  0  0  0  0
    4.2685    2.5136    4.0327 H   0  0  0  0  0  0  0  0  0  0  0  0
    5.9840    2.2872    3.6988 H   0  0  0  0  0  0  0  0  0  0  0  0
   -0.2979   -4.3833   -0.8747 H   0  0  0  0  0  0  0  0  0  0  0  0
   -1.7438   -3.4401   -1.2773 H   0  0  0  0  0  0  0  0  0  0  0  0
   -0.8682   -3.1141    0.2276 H   0  0  0  0  0  0  0  0  0  0  0  0
  1 17  1  0  0  0  0
  1 30  1  0  0  0  0
  2 20  1  0  0  0  0
  2 24  1  0  0  0  0
  3 16  2  0  0  0  0
  4 17  2  0  0  0  0
  5 28  1  0  0  0  0
  5 35  1  0  0  0  0
  6 35  2  0  0  0  0
  7  9  1  0  0  0  0
  7 13  1  0  0  0  0
  7 16  1  0  0  0  0
  8 12  1  0  0  0  0
  8 15  1  0  0  0  0
  8 43  1  0  0  0  0
  9 10  1  0  0  0  0
  9 17  1  0  0  0  0
  9 38  1  0  0  0  0
 10 11  1  0  0  0  0
 10 39  1  0  0  0  0
 10 40  1  0  0  0  0
 11 12  2  0  0  0  0
 11 14  1  0  0  0  0
 12 13  1  0  0  0  0
 13 41  1  0  0  0  0
 13 42  1  0  0  0  0
 14 15  1  0  0  0  0
 14 18  2  0  0  0  0
 15 19  2  0  0  0  0
 16 20  1  0  0  0  0
 18 21  1  0  0  0  0
 18 44  1  0  0  0  0
 19 22  1  0  0  0  0
 19 45  1  0  0  0  0
 20 46  1  0  0  0  0
 20 47  1  0  0  0  0
 21 22  2  0  0  0  0
 21 48  1  0  0  0  0
 22 49  1  0  0  0  0
 23 24  1  0  0  0  0
 23 25  1  0  0  0  0
 23 28  2  0  0  0  0
 24 29  2  0  0  0  0
 25 26  1  0  0  0  0
 25 34  2  0  0  0  0
 26 27  1  0  0  0  0
 26 50  1  0  0  0  0
 26 51  1  0  0  0  0
 27 32  1  0  0  0  0
 27 52  1  0  0  0  0
 27 53  1  0  0  0  0
 28 33  1  0  0  0  0
 29 31  1  0  0  0  0
 29 54  1  0  0  0  0
 30 55  1  0  0  0  0
 30 56  1  0  0  0  0
 30 57  1  0  0  0  0
 31 33  2  0  0  0  0
 31 36  1  0  0  0  0
 32 37  1  0  0  0  0
 32 58  1  0  0  0  0
 32 59  1  0  0  0  0
 33 60  1  0  0  0  0
 34 35  1  0  0  0  0
 34 61  1  0  0  0  0
 36 62  1  0  0  0  0
 36 63  1  0  0  0  0
 36 64  1  0  0  0  0
 37 65  1  0  0  0  0
 37 66  1  0  0  0  0
 37 67  1  0  0  0  0
M  END
> <PUBCHEM_COMPOUND_CID>
16399017

> <PUBCHEM_CONFORMER_RMSD>
1.2

> <PUBCHEM_CONFORMER_DIVERSEORDER>
1
45
67
93
49
25
50
91
52
116
117
22
8
40
2
63
96
82
24
102
74
71
28
84
14
73
34
108
85
55
3
79
36
10
103
83
5
42
115
58
78
118
76
37
98
38
60
56
112
53
48
80
47
109
88
54
18
81
69
21
44
65
72
4
41
59
97
68
113
43
87
64
39
6
90
13
105
57
61
75
31
101
17
9
86
111
35
104
19
89
95
92
26
32
107
106
15
27
33
29
23
51
70
94
110
77
100
16
12
99
66
46
11
30
7
114
20
62

> <PUBCHEM_MMFF94_PARTIAL_CHARGES>
41
1 -0.43
10 0.18
11 -0.18
12 -0.33
13 0.48
15 -0.15
16 0.57
17 0.66
18 -0.15
19 -0.15
2 -0.36
20 0.34
21 -0.15
22 -0.15
23 0.03
24 0.08
25 -0.17
26 0.14
28 0.08
29 -0.15
3 -0.57
30 0.28
31 -0.14
33 -0.15
34 -0.14
35 0.71
36 0.14
4 -0.57
43 0.27
44 0.15
45 0.15
48 0.15
49 0.15
5 -0.23
54 0.15
6 -0.57
60 0.15
61 0.15
7 -0.66
8 0.03
9 0.36

> <PUBCHEM_EFFECTIVE_ROTOR_COUNT>
9.8

> <PUBCHEM_PHARMACOPHORE_FEATURES>
12
1 2 acceptor
1 3 acceptor
1 37 hydrophobe
1 4 acceptor
1 6 acceptor
1 8 cation
1 8 donor
5 8 11 12 14 15 rings
6 14 15 18 19 21 22 rings
6 23 24 28 29 31 33 rings
6 5 23 25 28 34 35 rings
6 7 9 10 11 12 13 rings

> <PUBCHEM_HEAVY_ATOM_COUNT>
37

> <PUBCHEM_ATOM_DEF_STEREO_COUNT>
1

> <PUBCHEM_ATOM_UDEF_STEREO_COUNT>
0

> <PUBCHEM_BOND_DEF_STEREO_COUNT>
0

> <PUBCHEM_BOND_UDEF_STEREO_COUNT>
0

> <PUBCHEM_ISOTOPIC_ATOM_COUNT>
0

> <PUBCHEM_COMPONENT_COUNT>
1

> <PUBCHEM_CACTVS_TAUTO_COUNT>
1

> <PUBCHEM_CONFORMER_ID>
00FA3AA900000001

> <PUBCHEM_MMFF94_ENERGY>
104.6636

> <PUBCHEM_FEATURE_SELFOVERLAP>
61.102

> <PUBCHEM_SHAPE_FINGERPRINT>
10076449 9 18129962126250625038
11545043 162 18410857620992700800
12342043 65 18342183262909088640
12422481 6 18199475531179408763
13540713 4 18342168955988624728
13782708 43 18412547591977008002
13947930 73 17824832384301236995
14068700 675 17168980244231289155
14400156 147 15289622475320414001
14950920 106 17275111630035432706
15131766 46 16699754920935931289
15183329 4 13479123635975180451
15324884 4 18267564884984876964
15361156 5 18334586767211661829
15510800 12 18189060961642290803
19301679 30 18189627197598250747
21033648 144 17917138516061986302
21033648 29 18340474604644162312
22122407 14 17060052588824043129
22182313 1 18413105052349827652
23559900 14 18338232640348179564
25223398 141 18335711511529845430
392239 28 17632584863290301587
4073 2 18338513041508991948
484989 97 18342465795033836446
508706 21 18334293150103831903
613672 6 18115866476728003299
6698420 124 18125722284554687201
86090 222 18340216266762342466

> <PUBCHEM_SHAPE_MULTIPOLES>
716.26
16.78
4.57
2.35
6.52
1.83
1.13
-8.15
4.76
-4.98
-1.28
0.74
0.5
7.56

> <PUBCHEM_SHAPE_SELFOVERLAP>
1562.588

> <PUBCHEM_SHAPE_VOLUME>
388.6

> <PUBCHEM_COORDINATE_TYPE>
2
5
10

$$$$
165412598
  -OEChem-08182309503D

 70 74  0     1  0  0  0  0  0999 V2000
   -2.0426    0.8042   -0.2934 O   0  0  0  0  0  0  0  0  0  0  0  0
    3.2821   -0.4948   -3.4020 O   0  0  0  0  0  0  0  0  0  0  0  0
   -0.0916    1.8705   -1.6906 O   0  0  0  0  0  0  0  0  0  0  0  0
    1.7653   -1.4752   -1.9615 O   0  0  0  0  0  0  0  0  0  0  0  0
   -5.7814   -2.1081    0.8773 O   0  0  0  0  0  0  0  0  0  0  0  0
   -7.6395   -1.3056    1.9411 O   0  0  0  0  0  0  0  0  0  0  0  0
    1.5285    0.6935   -0.4946 N   0  0  0  0  0  0  0  0  0  0  0  0
    3.9592   -0.6127    2.0349 N   0  0  0  0  0  0  0  0  0  0  0  0
    2.5117    0.7890   -1.6004 C   0  0  1  0  0  0  0  0  0  0  0  0
    3.9436    1.1391   -1.1556 C   0  0  0  0  0  0  0  0  0  0  0  0
    4.2977    0.4702    0.1227 C   0  0  0  0  0  0  0  0  0  0  0  0
    3.3381   -0.0766    0.9428 C   0  0  0  0  0  0  0  0  0  0  0  0
    1.8774   -0.1106    0.7047 C   0  0  0  0  0  0  0  0  0  0  0  0
    5.5615    0.2662    0.7428 C   0  0  0  0  0  0  0  0  0  0  0  0
    5.3205   -0.4159    1.9401 C   0  0  0  0  0  0  0  0  0  0  0  0
    0.2374    1.1996   -0.7091 C   0  0  0  0  0  0  0  0  0  0  0  0
    2.4559   -0.5302   -2.3179 C   0  0  0  0  0  0  0  0  0  0  0  0
   -0.7902    0.8921    0.3526 C   0  0  1  0  0  0  0  0  0  0  0  0
    6.8903    0.5938    0.4062 C   0  0  0  0  0  0  0  0  0  0  0  0
    6.3468   -0.7869    2.8162 C   0  0  0  0  0  0  0  0  0  0  0  0
    7.9257    0.2285    1.2740 C   0  0  0  0  0  0  0  0  0  0  0  0
    7.6559   -0.4514    2.4597 C   0  0  0  0  0  0  0  0  0  0  0  0
   -0.8306    1.9963    1.3838 C   0  0  0  0  0  0  0  0  0  0  0  0
   -2.6925   -0.4064   -0.2404 C   0  0  0  0  0  0  0  0  0  0  0  0
   -3.9603   -0.5739    0.3325 C   0  0  0  0  0  0  0  0  0  0  0  0
   -4.7331    0.5188    0.9385 C   0  0  0  0  0  0  0  0  0  0  0  0
   -4.2166    1.9283    0.9963 C   0  0  0  0  0  0  0  0  0  0  0  0
   -4.5112   -1.8563    0.3215 C   0  0  0  0  0  0  0  0  0  0  0  0
   -2.0115   -1.4930   -0.8010 C   0  0  0  0  0  0  0  0  0  0  0  0
   -4.3389    2.6247   -0.3547 C   0  0  0  0  0  0  0  0  0  0  0  0
   -2.5866   -2.7627   -0.7975 C   0  0  0  0  0  0  0  0  0  0  0  0
    3.3260   -1.6944   -4.1814 C   0  0  0  0  0  0  0  0  0  0  0  0
   -3.8443   -2.9498   -0.2339 C   0  0  0  0  0  0  0  0  0  0  0  0
   -5.9386    0.2499    1.4594 C   0  0  0  0  0  0  0  0  0  0  0  0
   -3.8376    4.0668   -0.2718 C   0  0  0  0  0  0  0  0  0  0  0  0
   -6.5331   -1.0973    1.4554 C   0  0  0  0  0  0  0  0  0  0  0  0
   -1.8553   -3.9165   -1.3945 C   0  0  0  0  0  0  0  0  0  0  0  0
   -3.9880    4.7866   -1.6025 C   0  0  0  0  0  0  0  0  0  0  0  0
    2.1709    1.5438   -2.3194 H   0  0  0  0  0  0  0  0  0  0  0  0
    3.9960    2.2223   -0.9836 H   0  0  0  0  0  0  0  0  0  0  0  0
    4.6839    0.9039   -1.9277 H   0  0  0  0  0  0  0  0  0  0  0  0
    1.5298   -1.1365    0.5455 H   0  0  0  0  0  0  0  0  0  0  0  0
    1.3732    0.2911    1.5869 H   0  0  0  0  0  0  0  0  0  0  0  0
    3.4947   -1.0832    2.7996 H   0  0  0  0  0  0  0  0  0  0  0  0
   -0.5663   -0.0486    0.8638 H   0  0  0  0  0  0  0  0  0  0  0  0
    7.1164    1.1235   -0.5148 H   0  0  0  0  0  0  0  0  0  0  0  0
    6.1384   -1.3160    3.7401 H   0  0  0  0  0  0  0  0  0  0  0  0
    8.9519    0.4788    1.0184 H   0  0  0  0  0  0  0  0  0  0  0  0
    8.4755   -0.7256    3.1191 H   0  0  0  0  0  0  0  0  0  0  0  0
   -1.2550    2.9179    0.9812 H   0  0  0  0  0  0  0  0  0  0  0  0
   -1.4080    1.6949    2.2629 H   0  0  0  0  0  0  0  0  0  0  0  0
    0.1743    2.2452    1.7424 H   0  0  0  0  0  0  0  0  0  0  0  0
   -3.2282    1.9726    1.4231 H   0  0  0  0  0  0  0  0  0  0  0  0
   -4.8200    2.5040    1.7140 H   0  0  0  0  0  0  0  0  0  0  0  0
   -1.0360   -1.3536   -1.2602 H   0  0  0  0  0  0  0  0  0  0  0  0
   -3.8103    2.1008   -1.1556 H   0  0  0  0  0  0  0  0  0  0  0  0
   -5.3953    2.6385   -0.6559 H   0  0  0  0  0  0  0  0  0  0  0  0
    4.0167   -1.5341   -5.0134 H   0  0  0  0  0  0  0  0  0  0  0  0
    3.6945   -2.5265   -3.5740 H   0  0  0  0  0  0  0  0  0  0  0  0
    2.3346   -1.9197   -4.5858 H   0  0  0  0  0  0  0  0  0  0  0  0
   -4.3078   -3.9325   -0.2242 H   0  0  0  0  0  0  0  0  0  0  0  0
   -6.5427    1.0293    1.9144 H   0  0  0  0  0  0  0  0  0  0  0  0
   -2.7845    4.0894    0.0194 H   0  0  0  0  0  0  0  0  0  0  0  0
   -4.3981    4.6138    0.4953 H   0  0  0  0  0  0  0  0  0  0  0  0
   -2.0805   -3.9919   -2.4629 H   0  0  0  0  0  0  0  0  0  0  0  0
   -2.1361   -4.8579   -0.9100 H   0  0  0  0  0  0  0  0  0  0  0  0
   -0.7728   -3.8033   -1.2705 H   0  0  0  0  0  0  0  0  0  0  0  0
   -3.6268    5.8164   -1.5195 H   0  0  0  0  0  0  0  0  0  0  0  0
   -3.4103    4.2863   -2.3863 H   0  0  0  0  0  0  0  0  0  0  0  0
   -5.0366    4.8187   -1.9152 H   0  0  0  0  0  0  0  0  0  0  0  0
  1 18  1  0  0  0  0
  1 24  1  0  0  0  0
  2 17  1  0  0  0  0
  2 32  1  0  0  0  0
  3 16  2  0  0  0  0
  4 17  2  0  0  0  0
  5 28  1  0  0  0  0
  5 36  1  0  0  0  0
  6 36  2  0  0  0  0
  7  9  1  0  0  0  0
  7 13  1  0  0  0  0
  7 16  1  0  0  0  0
  8 12  1  0  0  0  0
  8 15  1  0  0  0  0
  8 44  1  0  0  0  0
  9 10  1  0  0  0  0
  9 17  1  0  0  0  0
  9 39  1  0  0  0  0
 10 11  1  0  0  0  0
 10 40  1  0  0  0  0
 10 41  1  0  0  0  0
 11 12  2  0  0  0  0
 11 14  1  0  0  0  0
 12 13  1  0  0  0  0
 13 42  1  0  0  0  0
 13 43  1  0  0  0  0
 14 15  1  0  0  0  0
 14 19  2  0  0  0  0
 15 20  2  0  0  0  0
 16 18  1  0  0  0  0
 18 23  1  0  0  0  0
 18 45  1  0  0  0  0
 19 21  1  0  0  0  0
 19 46  1  0  0  0  0
 20 22  1  0  0  0  0
 20 47  1  0  0  0  0
 21 22  2  0  0  0  0
 21 48  1  0  0  0  0
 22 49  1  0  0  0  0
 23 50  1  0  0  0  0
 23 51  1  0  0  0  0
 23 52  1  0  0  0  0
 24 25  1  0  0  0  0
 24 29  2  0  0  0  0
 25 26  1  0  0  0  0
 25 28  2  0  0  0  0
 26 27  1  0  0  0  0
 26 34  2  0  0  0  0
 27 30  1  0  0  0  0
 27 53  1  0  0  0  0
 27 54  1  0  0  0  0
 28 33  1  0  0  0  0
 29 31  1  0  0  0  0
 29 55  1  0  0  0  0
 30 35  1  0  0  0  0
 30 56  1  0  0  0  0
 30 57  1  0  0  0  0
 31 33  2  0  0  0  0
 31 37  1  0  0  0  0
 32 58  1  0  0  0  0
 32 59  1  0  0  0  0
 32 60  1  0  0  0  0
 33 61  1  0  0  0  0
 34 36  1  0  0  0  0
 34 62  1  0  0  0  0
 35 38  1  0  0  0  0
 35 63  1  0  0  0  0
 35 64  1  0  0  0  0
 37 65  1  0  0  0  0
 37 66  1  0  0  0  0
 37 67  1  0  0  0  0
 38 68  1  0  0  0  0
 38 69  1  0  0  0  0
 38 70  1  0  0  0  0
M  END
> <PUBCHEM_COMPOUND_CID>
165412598

> <PUBCHEM_CONFORMER_RMSD>
1

> <PUBCHEM_CONFORMER_DIVERSEORDER>
1
80
47
28
51
113
104
64
11
68
61
92
42
91
58
78
37
56
81
84
89
41
24
15
29
111
55
52
82
44
75
10
74
23
33
115
102
69
110
90
105
100
114
85
83
95
21
14
40
22
99
60
34
109
54
39
5
13
57
31
86
87
25
97
67
18
103
6
59
73
96
16
77
46
49
63
36
98
66
7
94
48
4
35
19
72
26
101
50
88
17
76
53
32
2
112
38
9
65
27
30
108
43
3
20
107
12
45
79
8
71
62
70
93
106

> <PUBCHEM_MMFF94_PARTIAL_CHARGES>
41
1 -0.36
10 0.18
11 -0.18
12 -0.33
13 0.48
15 -0.15
16 0.57
17 0.66
18 0.34
19 -0.15
2 -0.43
20 -0.15
21 -0.15
22 -0.15
24 0.08
25 0.03
26 -0.17
27 0.14
28 0.08
29 -0.15
3 -0.57
31 -0.14
32 0.28
33 -0.15
34 -0.14
36 0.71
37 0.14
4 -0.57
44 0.27
46 0.15
47 0.15
48 0.15
49 0.15
5 -0.23
55 0.15
6 -0.57
61 0.15
62 0.15
7 -0.66
8 0.03
9 0.36

> <PUBCHEM_EFFECTIVE_ROTOR_COUNT>
9.8

> <PUBCHEM_PHARMACOPHORE_FEATURES>
12
1 1 acceptor
1 3 acceptor
1 38 hydrophobe
1 4 acceptor
1 6 acceptor
1 8 cation
1 8 donor
5 8 11 12 14 15 rings
6 14 15 19 20 21 22 rings
6 24 25 28 29 31 33 rings
6 5 25 26 28 34 36 rings
6 7 9 10 11 12 13 rings

> <PUBCHEM_HEAVY_ATOM_COUNT>
38

> <PUBCHEM_ATOM_DEF_STEREO_COUNT>
2

> <PUBCHEM_ATOM_UDEF_STEREO_COUNT>
0

> <PUBCHEM_BOND_DEF_STEREO_COUNT>
0

> <PUBCHEM_BOND_UDEF_STEREO_COUNT>
0

> <PUBCHEM_ISOTOPIC_ATOM_COUNT>
0

> <PUBCHEM_COMPONENT_COUNT>
1

> <PUBCHEM_CACTVS_TAUTO_COUNT>
-1

> <PUBCHEM_CONFORMER_ID>
09DBFEF600000001

> <PUBCHEM_MMFF94_ENERGY>
113.0427

> <PUBCHEM_FEATURE_SELFOVERLAP>
61.112

> <PUBCHEM_SHAPE_FINGERPRINT>
10290309 65 18201439112643532687
10305334 12 17459463352368127057
10462385 53 17489577957613255759
11112241 14 16272203123993421667
11227688 84 14780933154515851112
11331351 85 16952245405828765548
11763715 3 17603585202049418604
12166972 35 16443061725202236590
12422481 6 18116149961237536270
12788726 201 18115606923433124125
13383668 40 17632027334202773574
13540713 4 17844258332196027948
13726171 33 17839484506359441656
14040222 275 14490481841790349358
14705955 166 17346325881933599049
14856354 85 18339641256065675159
14910302 57 18130242488350465807
15021287 119 15647340680039823692
15320294 125 18260822726390054327
15326921 28 18121482580064736321
15439362 3 17614550451056257157
17913733 40 16487255487200969094
20511986 3 17968645064702342568
21033648 144 15626222403465954557
21033648 29 17203336645019686975
21033650 10 18044686150839584701
21130935 74 17968085366972399976
23522609 53 17314533447651685708
23559900 14 17845391976292765916
23569943 247 15865451871647619800
244849 19 17702106867576711996
249057 25 17168438090209374309
3383291 50 18129105688107854055
3504750 166 18187635886839067155
3882209 13 17125337445097053063
397638 26 17203602714629494282
397830 11 17986939925224957568
4340502 62 17346606274525861062
4938544 92 18336253553340012473
5028188 123 18041565729420678846
5080951 261 18042104518954407341
54039377 194 17313101964583683434
563151 74 16343992411440153959
57527293 21 18269828891115891572
6176135 31 18131080371417742399
6691757 9 18202278135153477131
9896288 288 18261672554952794177
9961470 85 17833548999290514377

> <PUBCHEM_SHAPE_MULTIPOLES>
736.84
19.42
3.73
2.91
14.43
1.71
-2.02
-1.16
15.31
-8.81
-2.31
4.53
-1.12
1.82

> <PUBCHEM_SHAPE_SELFOVERLAP>
1605.978

> <PUBCHEM_SHAPE_VOLUME>
399.7

> <PUBCHEM_COORDINATE_TYPE>
2
5
10

$$$$
163196196
  -OEChem-08182309503D

 66 69  0     1  0  0  0  0  0999 V2000
    6.9036   -1.4656   -2.0861 Br  0  0  0  0  0  0  0  0  0  0  0  0
   -4.4093   -2.0429   -0.3196 O   0  0  0  0  0  0  0  0  0  0  0  0
    0.8190    0.7398    2.8856 O   0  0  0  0  0  0  0  0  0  0  0  0
    0.1170    2.5139   -0.8913 N   0  0  0  0  0  0  0  0  0  0  0  0
    2.8538   -0.1302    2.2151 N   0  0  0  0  0  0  0  0  0  0  0  0
    0.4046    4.4780   -1.8871 N   0  0  0  0  0  0  0  0  0  0  0  0
   -4.8630    0.5319    0.7966 C   0  0  0  0  0  0  0  0  0  0  0  0
   -1.8672   -2.9834   -1.1772 C   0  0  0  0  0  0  0  0  0  0  0  0
   -3.5144    0.0671    0.3550 C   0  0  0  0  0  0  0  0  0  0  0  0
   -2.0733   -1.6243   -0.5937 C   0  0  0  0  0  0  0  0  0  0  0  0
   -1.1540    0.5049    0.0835 C   0  0  0  0  0  0  0  0  0  0  0  0
   -3.3405   -1.2064   -0.1870 C   0  0  0  0  0  0  0  0  0  0  0  0
    0.0582    1.4538    0.2332 C   0  0  1  0  0  0  0  0  0  0  0  0
   -2.4211    0.9227    0.4902 C   0  0  0  0  0  0  0  0  0  0  0  0
   -0.9800   -0.7686   -0.4585 C   0  0  0  0  0  0  0  0  0  0  0  0
   -5.9576    0.5670   -0.3200 C   0  0  0  0  0  0  0  0  0  0  0  0
   -5.4385   -0.3893    1.9155 C   0  0  0  0  0  0  0  0  0  0  0  0
   -4.8011    1.9827    1.3653 C   0  0  0  0  0  0  0  0  0  0  0  0
   -0.3716   -3.2146   -1.5536 C   0  0  0  0  0  0  0  0  0  0  0  0
   -2.7147   -3.1755   -2.4720 C   0  0  0  0  0  0  0  0  0  0  0  0
   -2.2529   -4.1777   -0.2441 C   0  0  0  0  0  0  0  0  0  0  0  0
    1.3522    0.7985    0.5687 C   0  0  0  0  0  0  0  0  0  0  0  0
    2.2674    0.5003   -0.4306 C   0  0  0  0  0  0  0  0  0  0  0  0
    1.6910    0.4652    1.8643 C   0  0  0  0  0  0  0  0  0  0  0  0
   -0.1488    2.3047   -2.2152 C   0  0  0  0  0  0  0  0  0  0  0  0
    0.4445    3.8329   -0.7424 C   0  0  0  0  0  0  0  0  0  0  0  0
    3.4842   -0.1165   -0.1107 C   0  0  0  0  0  0  0  0  0  0  0  0
    3.7400   -0.4183    1.2433 C   0  0  0  0  0  0  0  0  0  0  0  0
    0.0353    3.5311   -2.8093 C   0  0  0  0  0  0  0  0  0  0  0  0
    4.4320   -0.4315   -1.0991 C   0  0  0  0  0  0  0  0  0  0  0  0
    4.9491   -1.0310    1.5607 C   0  0  0  0  0  0  0  0  0  0  0  0
    5.6330   -1.0443   -0.7536 C   0  0  0  0  0  0  0  0  0  0  0  0
    5.8916   -1.3441    0.5781 C   0  0  0  0  0  0  0  0  0  0  0  0
    1.2316    0.3698    4.1958 C   0  0  0  0  0  0  0  0  0  0  0  0
   -0.1856    2.1096    1.0845 H   0  0  0  0  0  0  0  0  0  0  0  0
   -2.4869    1.9238    0.8985 H   0  0  0  0  0  0  0  0  0  0  0  0
    0.0154   -1.0415   -0.7762 H   0  0  0  0  0  0  0  0  0  0  0  0
   -5.6247    1.1869   -1.1607 H   0  0  0  0  0  0  0  0  0  0  0  0
   -6.1849   -0.4260   -0.7181 H   0  0  0  0  0  0  0  0  0  0  0  0
   -6.8980    0.9867    0.0558 H   0  0  0  0  0  0  0  0  0  0  0  0
   -4.7188   -0.4988    2.7356 H   0  0  0  0  0  0  0  0  0  0  0  0
   -5.6949   -1.3923    1.5639 H   0  0  0  0  0  0  0  0  0  0  0  0
   -6.3554    0.0378    2.3394 H   0  0  0  0  0  0  0  0  0  0  0  0
   -5.7968    2.3050    1.6972 H   0  0  0  0  0  0  0  0  0  0  0  0
   -4.4817    2.7120    0.6113 H   0  0  0  0  0  0  0  0  0  0  0  0
   -4.1554    2.0551    2.2487 H   0  0  0  0  0  0  0  0  0  0  0  0
    0.2894   -3.1751   -0.6794 H   0  0  0  0  0  0  0  0  0  0  0  0
   -0.0211   -2.5092   -2.3169 H   0  0  0  0  0  0  0  0  0  0  0  0
   -0.2372   -4.2130   -1.9901 H   0  0  0  0  0  0  0  0  0  0  0  0
   -3.7973   -3.2247   -2.3543 H   0  0  0  0  0  0  0  0  0  0  0  0
   -2.4294   -4.1081   -2.9756 H   0  0  0  0  0  0  0  0  0  0  0  0
   -2.5105   -2.3609   -3.1787 H   0  0  0  0  0  0  0  0  0  0  0  0
   -1.6989   -4.0988    0.6999 H   0  0  0  0  0  0  0  0  0  0  0  0
   -3.3029   -4.2826    0.0263 H   0  0  0  0  0  0  0  0  0  0  0  0
   -1.9675   -5.1322   -0.7045 H   0  0  0  0  0  0  0  0  0  0  0  0
   -4.2050   -2.9273   -0.6214 H   0  0  0  0  0  0  0  0  0  0  0  0
    2.0510    0.7256   -1.4715 H   0  0  0  0  0  0  0  0  0  0  0  0
   -0.4292    1.3413   -2.6166 H   0  0  0  0  0  0  0  0  0  0  0  0
    0.7024    4.2633    0.2155 H   0  0  0  0  0  0  0  0  0  0  0  0
   -0.0774    3.7796   -3.8545 H   0  0  0  0  0  0  0  0  0  0  0  0
    4.2242   -0.1943   -2.1411 H   0  0  0  0  0  0  0  0  0  0  0  0
    5.1753   -1.2762    2.5969 H   0  0  0  0  0  0  0  0  0  0  0  0
    6.8219   -1.8224    0.8739 H   0  0  0  0  0  0  0  0  0  0  0  0
    0.4352    0.6524    4.8908 H   0  0  0  0  0  0  0  0  0  0  0  0
    1.3756   -0.7132    4.2718 H   0  0  0  0  0  0  0  0  0  0  0  0
    2.1399    0.9070    4.4888 H   0  0  0  0  0  0  0  0  0  0  0  0
  1 32  1  0  0  0  0
  2 12  1  0  0  0  0
  2 56  1  0  0  0  0
  3 24  1  0  0  0  0
  3 34  1  0  0  0  0
  4 13  1  0  0  0  0
  4 25  1  0  0  0  0
  4 26  1  0  0  0  0
  5 24  1  0  0  0  0
  5 28  2  0  0  0  0
  6 26  2  0  0  0  0
  6 29  1  0  0  0  0
  7  9  1  0  0  0  0
  7 16  1  0  0  0  0
  7 17  1  0  0  0  0
  7 18  1  0  0  0  0
  8 10  1  0  0  0  0
  8 19  1  0  0  0  0
  8 20  1  0  0  0  0
  8 21  1  0  0  0  0
  9 12  2  0  0  0  0
  9 14  1  0  0  0  0
 10 12  1  0  0  0  0
 10 15  2  0  0  0  0
 11 13  1  0  0  0  0
 11 14  2  0  0  0  0
 11 15  1  0  0  0  0
 13 22  1  0  0  0  0
 13 35  1  0  0  0  0
 14 36  1  0  0  0  0
 15 37  1  0  0  0  0
 16 38  1  0  0  0  0
 16 39  1  0  0  0  0
 16 40  1  0  0  0  0
 17 41  1  0  0  0  0
 17 42  1  0  0  0  0
 17 43  1  0  0  0  0
 18 44  1  0  0  0  0
 18 45  1  0  0  0  0
 18 46  1  0  0  0  0
 19 47  1  0  0  0  0
 19 48  1  0  0  0  0
 19 49  1  0  0  0  0
 20 50  1  0  0  0  0
 20 51  1  0  0  0  0
 20 52  1  0  0  0  0
 21 53  1  0  0  0  0
 21 54  1  0  0  0  0
 21 55  1  0  0  0  0
 22 23  1  0  0  0  0
 22 24  2  0  0  0  0
 23 27  2  0  0  0  0
 23 57  1  0  0  0  0
 25 29  2  0  0  0  0
 25 58  1  0  0  0  0
 26 59  1  0  0  0  0
 27 28  1  0  0  0  0
 27 30  1  0  0  0  0
 28 31  1  0  0  0  0
 29 60  1  0  0  0  0
 30 32  2  0  0  0  0
 30 61  1  0  0  0  0
 31 33  2  0  0  0  0
 31 62  1  0  0  0  0
 32 33  1  0  0  0  0
 33 63  1  0  0  0  0
 34 64  1  0  0  0  0
 34 65  1  0  0  0  0
 34 66  1  0  0  0  0
M  END
> <PUBCHEM_COMPOUND_CID>
163196196

> <PUBCHEM_CONFORMER_RMSD>
0.8

> <PUBCHEM_CONFORMER_DIVERSEORDER>
1
78
54
63
131
81
108
40
141
90
74
102
136
130
88
45
152
148
149
80
86
95
39
122
109
135
150
84
129
111
117
46
103
70
134
147
10
68
79
94
123
75
151
91
121
17
58
128
116
113
21
16
112
143
144
27
120
69
71
22
47
142
153
137
125
126
23
13
72
100
110
9
57
30
48
107
31
139
15
97
87
3
64
2
36
24
138
96
29
101
12
65
66
32
140
49
34
83
127
99
28
6
59
44
35
50
41
8
98
119
33
5
132
4
43
82
114
85
133
42
60
89
118
7
52
124
55
104
19
56
61
145
37
67
93
105
115
62
92
146
73
20
38
51
18
106
14
76
53
26
11
25
77

> <PUBCHEM_MMFF94_PARTIAL_CHARGES>
37
1 -0.11
10 -0.14
11 -0.14
12 0.08
13 0.54
14 -0.15
15 -0.15
2 -0.53
22 -0.14
23 -0.15
24 0.39
25 -0.3
26 0.04
28 0.31
29 0.08
3 -0.36
30 -0.15
31 -0.15
32 0.11
33 -0.15
34 0.28
36 0.15
37 0.15
4 0.05
5 -0.62
56 0.45
57 0.15
58 0.15
59 0.15
6 -0.57
60 0.15
61 0.15
62 0.15
63 0.15
7 0.14
8 0.14
9 -0.14

> <PUBCHEM_EFFECTIVE_ROTOR_COUNT>
6

> <PUBCHEM_PHARMACOPHORE_FEATURES>
11
1 1 hydrophobe
1 2 donor
1 3 acceptor
1 5 acceptor
3 4 6 26 cation
4 7 16 17 18 hydrophobe
4 8 19 20 21 hydrophobe
5 4 6 25 26 29 rings
6 27 28 30 31 32 33 rings
6 5 22 23 24 27 28 rings
6 9 10 11 12 14 15 rings

> <PUBCHEM_HEAVY_ATOM_COUNT>
34

> <PUBCHEM_ATOM_DEF_STEREO_COUNT>
0

> <PUBCHEM_ATOM_UDEF_STEREO_COUNT>
1

> <PUBCHEM_BOND_DEF_STEREO_COUNT>
0

> <PUBCHEM_BOND_UDEF_STEREO_COUNT>
0

> <PUBCHEM_ISOTOPIC_ATOM_COUNT>
0

> <PUBCHEM_COMPONENT_COUNT>
1

> <PUBCHEM_CACTVS_TAUTO_COUNT>
-1

> <PUBCHEM_CONFORMER_ID>
09BA2D2400000001

> <PUBCHEM_MMFF94_ENERGY>
134.7164

> <PUBCHEM_FEATURE_SELFOVERLAP>
55.9

> <PUBCHEM_SHAPE_FINGERPRINT>
10940486 97 18268995456358353782
11049842 53 17914926294329450199
11421498 54 17458903734781988336
11477941 20 18186811258257410532
11513181 2 17628627858934693350
11763715 3 17125627737535535927
12128747 34 17346024683950177850
12160290 23 17392716372947800837
12166972 35 18338792416721455129
12403259 327 17203327835872613657
12422481 6 18195244408461163147
12553582 1 18040983055769373450
12633257 1 17775278378646934194
12788726 201 17823136735733914128
13004483 165 18261390031703675004
13009979 54 18341343278848988585
13149001 5 17024605614192425696
13383668 90 17102574952094935094
133893 2 17318709628588455133
13402501 40 17774728571742260414
13583140 156 17386564791070305217
13690498 29 18262237695677087766
13911987 19 16226064275129325408
14114206 34 17459170959014772118
14117953 113 18339080389540236005
14279260 333 17241600616725043666
14840074 17 18262244330520650246
14856354 85 17822021882161288491
14910302 57 18199753549187195790
14955137 171 18187657924348060737
15219462 58 17056376045331397233
15276724 80 18114185190337030140
15444296 121 18188791495113804531
15849732 13 18408889533860119893
17818456 19 18272092759735261953
17974551 9 17273966011959763531
1813 80 18188197801526086764
18603816 31 17346024581451562782
18681886 176 18409732880964827457
19319366 153 16750715257610817991
21033648 29 18130208386326492817
21781055 127 17558583290636141873
21987440 362 17056142631629761537
22907989 373 17898272927938306532
23559900 14 17775002431588525992
23576562 1 18114461284046312437
24893992 56 17632580423665164289
340366 18 18337112362447402245
4015057 19 16557884832576557913
4017518 198 17917431982144828679
437795 51 17024049205168364352
437815 12 17203611467324008890
4409770 3 17972579027180719028
44880168 125 18201717293781338742
497634 4 18059309660765109180
513202 73 17898850141272434698
5265222 85 18272378589703049486
5385378 56 17914910729848043283
57527293 21 18195778934906497904
57527452 28 18200049355736705946
5912855 24 17615706458646947555
6371380 46 17845931836174943098

> <PUBCHEM_SHAPE_MULTIPOLES>
678.96
12.56
4.35
2.93
8.58
0.23
1.59
-6.12
0.79
-2.92
-4.25
1.63
1.42
-0.69

> <PUBCHEM_SHAPE_SELFOVERLAP>
1461.353

> <PUBCHEM_SHAPE_VOLUME>
387.5

> <PUBCHEM_COORDINATE_TYPE>
2
5
10

$$$$
5403295
  -OEChem-08182309503D

 35 37  0     0  0  0  0  0  0999 V2000
    2.0649   -2.0323   -1.5244 O   0  0  0  0  0  0  0  0  0  0  0  0
   -2.6965    0.2258   -0.3411 O   0  0  0  0  0  0  0  0  0  0  0  0
   -0.0353   -3.2284   -0.4101 O   0  0  0  0  0  0  0  0  0  0  0  0
   -2.2703    3.6870   -0.6010 O   0  5  0  0  0  0  0  0  0  0  0  0
   -0.9229    2.0133   -1.0515 O   0  0  0  0  0  0  0  0  0  0  0  0
   -1.5042   -1.6817    0.4570 N   0  0  0  0  0  0  0  0  0  0  0  0
   -2.5582   -2.5129    0.2730 N   0  0  0  0  0  0  0  0  0  0  0  0
   -2.0445    2.4416   -0.6479 N   0  3  0  0  0  0  0  0  0  0  0  0
    3.0347   -0.2526   -0.2263 C   0  0  0  0  0  0  0  0  0  0  0  0
    2.9288    0.6428    0.8646 C   0  0  0  0  0  0  0  0  0  0  0  0
    1.9890   -1.1560   -0.4770 C   0  0  0  0  0  0  0  0  0  0  0  0
    0.8554   -1.1765    0.3363 C   0  0  0  0  0  0  0  0  0  0  0  0
    1.7805    0.6086    1.6724 C   0  0  0  0  0  0  0  0  0  0  0  0
    0.7513   -0.2957    1.4088 C   0  0  0  0  0  0  0  0  0  0  0  0
    4.1829   -0.2180   -1.0343 C   0  0  0  0  0  0  0  0  0  0  0  0
    3.9743    1.5464    1.1153 C   0  0  0  0  0  0  0  0  0  0  0  0
    5.2121    0.6861   -0.7703 C   0  0  0  0  0  0  0  0  0  0  0  0
    5.1080    1.5667    0.3025 C   0  0  0  0  0  0  0  0  0  0  0  0
   -0.2335   -2.1110    0.0843 C   0  0  0  0  0  0  0  0  0  0  0  0
   -3.7804   -0.4320    0.0805 C   0  0  0  0  0  0  0  0  0  0  0  0
   -4.8009    0.3647    0.4364 C   0  0  0  0  0  0  0  0  0  0  0  0
   -3.0339    1.5390   -0.2536 C   0  0  0  0  0  0  0  0  0  0  0  0
   -4.3181    1.6773    0.2194 C   0  0  0  0  0  0  0  0  0  0  0  0
   -3.6832   -1.9021    0.0869 C   0  0  0  0  0  0  0  0  0  0  0  0
    1.6813    1.2836    2.5200 H   0  0  0  0  0  0  0  0  0  0  0  0
   -0.0976   -0.2983    2.0865 H   0  0  0  0  0  0  0  0  0  0  0  0
    4.3108   -0.8693   -1.8942 H   0  0  0  0  0  0  0  0  0  0  0  0
    3.9142    2.2440    1.9481 H   0  0  0  0  0  0  0  0  0  0  0  0
    6.0935    0.7057   -1.4047 H   0  0  0  0  0  0  0  0  0  0  0  0
    5.9092    2.2710    0.5067 H   0  0  0  0  0  0  0  0  0  0  0  0
   -1.6733   -0.7598    0.8397 H   0  0  0  0  0  0  0  0  0  0  0  0
    2.9881   -2.2869   -1.6793 H   0  0  0  0  0  0  0  0  0  0  0  0
   -5.7735    0.0741    0.8060 H   0  0  0  0  0  0  0  0  0  0  0  0
   -4.8464    2.6051    0.3889 H   0  0  0  0  0  0  0  0  0  0  0  0
   -4.6133   -2.4850   -0.0112 H   0  0  0  0  0  0  0  0  0  0  0  0
  1 11  1  0  0  0  0
  1 32  1  0  0  0  0
  2 20  1  0  0  0  0
  2 22  1  0  0  0  0
  3 19  2  0  0  0  0
  4  8  1  0  0  0  0
  5  8  2  0  0  0  0
  6  7  1  0  0  0  0
  6 19  1  0  0  0  0
  6 31  1  0  0  0  0
  7 24  2  0  0  0  0
  8 22  1  0  0  0  0
  9 10  1  0  0  0  0
  9 11  1  0  0  0  0
  9 15  2  0  0  0  0
 10 13  1  0  0  0  0
 10 16  2  0  0  0  0
 11 12  2  0  0  0  0
 12 14  1  0  0  0  0
 12 19  1  0  0  0  0
 13 14  2  0  0  0  0
 13 25  1  0  0  0  0
 14 26  1  0  0  0  0
 15 17  1  0  0  0  0
 15 27  1  0  0  0  0
 16 18  1  0  0  0  0
 16 28  1  0  0  0  0
 17 18  2  0  0  0  0
 17 29  1  0  0  0  0
 18 30  1  0  0  0  0
 20 21  2  0  0  0  0
 20 24  1  0  0  0  0
 21 23  1  0  0  0  0
 21 33  1  0  0  0  0
 22 23  2  0  0  0  0
 23 34  1  0  0  0  0
 24 35  1  0  0  0  0
M  CHG  2   4  -1   8   1
M  END
> <PUBCHEM_COMPOUND_CID>
5403295

> <PUBCHEM_CONFORMER_RMSD>
0.8

> <PUBCHEM_CONFORMER_DIVERSEORDER>
1
10
22
12
20
4
21
3
13
11
23
5
9
19
24
8
6
18
7
15
2
17
14
16

> <PUBCHEM_MMFF94_PARTIAL_CHARGES>
33
1 -0.53
11 0.08
12 0.09
13 -0.15
14 -0.15
15 -0.15
16 -0.15
17 -0.15
18 -0.15
19 0.54
2 -0.28
20 0.05
21 -0.15
22 0.22
23 -0.15
24 0.47
25 0.15
26 0.15
27 0.15
28 0.15
29 0.15
3 -0.57
30 0.15
31 0.37
32 0.45
33 0.15
34 0.15
35 0.06
4 -0.52
5 -0.52
6 -0.37
7 -0.51
8 0.96

> <PUBCHEM_EFFECTIVE_ROTOR_COUNT>
5

> <PUBCHEM_PHARMACOPHORE_FEATURES>
11
1 1 donor
1 2 acceptor
1 3 acceptor
1 4 acceptor
1 4 anion
1 5 acceptor
1 6 donor
1 7 acceptor
5 2 20 21 22 23 rings
6 9 10 11 12 13 14 rings
6 9 10 15 16 17 18 rings

> <PUBCHEM_HEAVY_ATOM_COUNT>
24

> <PUBCHEM_ATOM_DEF_STEREO_COUNT>
0

> <PUBCHEM_ATOM_UDEF_STEREO_COUNT>
0

> <PUBCHEM_BOND_DEF_STEREO_COUNT>
1

> <PUBCHEM_BOND_UDEF_STEREO_COUNT>
0

> <PUBCHEM_ISOTOPIC_ATOM_COUNT>
0

> <PUBCHEM_COMPONENT_COUNT>
1

> <PUBCHEM_CACTVS_TAUTO_COUNT>
7

> <PUBCHEM_CONFORMER_ID>
0052729F00000001

> <PUBCHEM_MMFF94_ENERGY>
79.041

> <PUBCHEM_FEATURE_SELFOVERLAP>
55.95

> <PUBCHEM_SHAPE_FINGERPRINT>
10165383 225 18271815596747169105
10366900 7 18201987825149255829
10498660 4 18335130973827446453
10646746 165 18410293622972391706
10670039 82 18333734624114412340
10759866 29 18187360996136905354
10764073 3 16613027243233090890
11014199 57 17547851214502352166
11059048 146 17766000497637506153
11595378 159 17749098994036482752
12403259 415 17987801946377443082
12596602 18 16588309440018876992
12730499 353 18272661142411122579
13402501 40 18342458166137722729
13965767 371 17171515472757350453
14081887 123 18408878529858638157
14251757 17 18130233670566283250
14341114 328 17095527300733122121
14840074 17 17894921736798335269
15575132 122 18040714749458428333
15961568 22 17975126862369729340
16988056 13 15305029407353591685
21033648 29 18130222782544730754
221357 26 17846215592122055619
23114952 82 18130514011271149646
23536364 44 17626408735279493550
23557571 272 18338528541586942887
23559900 14 18130229251388541662
238 59 17692221086059954085
350125 39 18191586350334134370
3524813 1 18201152256140715979
469060 322 17023177275499472327
574716 61 14548444907829709896
5895379 119 18188789309176132380
6287921 2 18410584975973346620
6442390 28 18411419514067922654
7808743 9 18408039606628638121

> <PUBCHEM_SHAPE_MULTIPOLES>
449.62
10.37
3.2
1.16
2.3
0.24
0.15
4.44
-0.44
-2.62
-0.73
0.94
0.13
1.21

> <PUBCHEM_SHAPE_SELFOVERLAP>
998.482

> <PUBCHEM_SHAPE_VOLUME>
239.7

> <PUBCHEM_COORDINATE_TYPE>
2
5
10

$$$$
